data_image0
_chemical_formula_structural       Ba2O3TiO
_chemical_formula_sum              "Ba2 O4 Ti1"
_cell_length_a       4.044962442015841
_cell_length_b       4.047036260220802
_cell_length_c       7.332304954528809
_cell_angle_alpha    105.94391663434016
_cell_angle_beta     105.9144505970953
_cell_angle_gamma    89.99324785002162

_space_group_name_H-M_alt    "P 1"
_space_group_IT_number       1

loop_
  _space_group_symop_operation_xyz
  'x, y, z'

loop_
  _atom_site_type_symbol
  _atom_site_label
  _atom_site_symmetry_multiplicity
  _atom_site_fract_x
  _atom_site_fract_y
  _atom_site_fract_z
  _atom_site_occupancy
  Ba  Ba1       1.0  0.09257271087677538  0.488173944429142  0.5395527759974317  1.0000
  Ba  Ba2       1.0  0.8059758557501937  0.20137907332186733  0.9652626575423409  1.0000
  O   O1        1.0  0.9495580901484613  0.8449000370145047  0.2523315203946073  1.0000
  O   O2        1.0  0.596348929487223  0.9919761337168518  0.5468311340421887  1.0000
  O   O3        1.0  0.3022051508928679  0.6975029561316717  0.9575639264982181  1.0000
  Ti  Ti1       1.0  0.4489747163105921  0.8446250163535649  0.25234061258265017  1.0000
  O   O4        1.0  0.44937905504979  0.3449483630984452  0.2522962489111806  1.0000
