data_image0
_chemical_formula_structural       Ba2O2BaOBa2O3Ti2OBaO
_chemical_formula_sum              "Ba6 O8 Ti2"
_cell_length_a       6.292788741436077
_cell_length_b       7.554959187187607
_cell_length_c       8.459630012512207
_cell_angle_alpha    89.84262130468375
_cell_angle_beta     90.08193744820016
_cell_angle_gamma    90.03088179185464

_space_group_name_H-M_alt    "P 1"
_space_group_IT_number       1

loop_
  _space_group_symop_operation_xyz
  'x, y, z'

loop_
  _atom_site_type_symbol
  _atom_site_label
  _atom_site_symmetry_multiplicity
  _atom_site_fract_x
  _atom_site_fract_y
  _atom_site_fract_z
  _atom_site_occupancy
  Ba  Ba1       1.0  0.9449781448007543  0.7162426046875445  0.29332450932443704  1.0000
  Ba  Ba2       1.0  0.4438110811854482  0.9861690648086782  0.5593799103475485  1.0000
  O   O1        1.0  0.7034664610407317  0.8889949409308093  0.09752649715665405  1.0000
  O   O2        1.0  0.20422129671221761  0.2769335568151151  0.595915413072636  1.0000
  Ba  Ba3       1.0  0.44489274949549823  0.44895291376959273  0.792080572016464  1.0000
  O   O3        1.0  0.9464596949528268  0.9709744422154906  0.5038686824398667  1.0000
  Ba  Ba4       1.0  0.9448366620990145  0.7885609095086593  0.8155338703452563  1.0000
  Ba  Ba5       1.0  0.9444611158488398  0.17942592538678945  0.060034813708548324  1.0000
  O   O4        1.0  0.4454178823599343  0.19441058142049897  0.0035652692820751877  1.0000
  O   O5        1.0  0.443933518037302  0.8235418725229603  0.8162278853089329  1.0000
  O   O6        1.0  0.186009525383919  0.889438715086577  0.09757492012829135  1.0000
  Ti  Ti1       1.0  0.9447347143116057  0.21825906031350079  0.5081674592963086  1.0000
  Ti  Ti2       1.0  0.4446867048609519  0.9471691488738482  0.008218194418968233  1.0000
  O   O7        1.0  0.6871002724309767  0.27482101043096724  0.5990163968069675  1.0000
  Ba  Ba6       1.0  0.4465649166150879  0.37795289751015193  0.31457801820807707  1.0000
  O   O8        1.0  0.9405748817608746  0.34248582605850697  0.31590482922311897  1.0000
