data_image0
_chemical_formula_structural       OBaO2BaTiBaOTiO3
_chemical_formula_sum              "O7 Ba3 Ti2"
_cell_length_a       4.068684469037477
_cell_length_b       4.058912815046669
_cell_length_c       11.073750495910645
_cell_angle_alpha    100.59297720429208
_cell_angle_beta     100.54629949362746
_cell_angle_gamma    90.04045759454787

_space_group_name_H-M_alt    "P 1"
_space_group_IT_number       1

loop_
  _space_group_symop_operation_xyz
  'x, y, z'

loop_
  _atom_site_type_symbol
  _atom_site_label
  _atom_site_symmetry_multiplicity
  _atom_site_fract_x
  _atom_site_fract_y
  _atom_site_fract_z
  _atom_site_occupancy
  O   O1        1.0  0.24773202259408425  0.37902447206238626  0.21492981685461673  1.0000
  Ba  Ba1       1.0  0.9500263622156828  0.5988037944599642  0.6598601506804684  1.0000
  O   O2        1.0  0.8310352317118762  0.4693549128142435  0.3985622280430158  1.0000
  O   O3        1.0  0.5497617018428842  0.7059955305948408  0.8372168205929765  1.0000
  Ba  Ba2       1.0  0.1314593604088398  0.7882399942818338  0.026131351323193847  1.0000
  Ti  Ti1       1.0  0.5241916569981705  0.17475571274862248  0.8365111479767218  1.0000
  Ba  Ba3       1.0  0.3143888359959913  0.977226538536369  0.39232693054446705  1.0000
  O   O4        1.0  0.7368520136855733  0.8706711643539787  0.21503923665639987  1.0000
  Ti  Ti2       1.0  0.7122585879838963  0.40149033152223695  0.21571502226768283  1.0000
  O   O5        1.0  0.6479893791431026  0.28839094948008487  0.026149159042690866  1.0000
  O   O6        1.0  0.46080031588177633  0.10731639432263204  0.6536706103066328  1.0000
  O   O7        1.0  0.06047397520197824  0.19741725676659092  0.8373173197943508  1.0000
