data_image0
_chemical_formula_structural       OTiBaO
_chemical_formula_sum              "O2 Ti1 Ba1"
_cell_length_a       3.3216592054230127
_cell_length_b       3.323112378197023
_cell_length_c       6.296657085418702
_cell_angle_alpha    74.73309616698714
_cell_angle_beta     74.73609439966815
_cell_angle_gamma    60.03441936486835

_space_group_name_H-M_alt    "P 1"
_space_group_IT_number       1

loop_
  _space_group_symop_operation_xyz
  'x, y, z'

loop_
  _atom_site_type_symbol
  _atom_site_label
  _atom_site_symmetry_multiplicity
  _atom_site_fract_x
  _atom_site_fract_y
  _atom_site_fract_z
  _atom_site_occupancy
  O   O1        1.0  0.21983190758276897  0.6971409386323397  0.9528753690980614  1.0000
  Ti  Ti1       1.0  0.4977038326941216  0.975448573473152  0.11860252693682215  1.0000
  Ba  Ba1       1.0  0.9978102383959553  0.4751783081770372  0.6186167629402639  1.0000
  O   O2        1.0  0.7758032080133453  0.2534980701219644  0.28434625675819564  1.0000
