data_image0
_chemical_formula_structural       Ba2O2TiO2TiO
_chemical_formula_sum              "Ba2 O5 Ti2"
_cell_length_a       4.08684581410063
_cell_length_b       6.414074983408719
_cell_length_c       6.0242486000061035
_cell_angle_alpha    105.61728995782201
_cell_angle_beta     109.89012111764963
_cell_angle_gamma    89.93973273375178

_space_group_name_H-M_alt    "P 1"
_space_group_IT_number       1

loop_
  _space_group_symop_operation_xyz
  'x, y, z'

loop_
  _atom_site_type_symbol
  _atom_site_label
  _atom_site_symmetry_multiplicity
  _atom_site_fract_x
  _atom_site_fract_y
  _atom_site_fract_z
  _atom_site_occupancy
  Ba  Ba1       1.0  0.8955179939753957  0.5476604800708827  0.9743864268713347  1.0000
  Ba  Ba2       1.0  0.699282972784508  0.893811244221664  0.5813359304460608  1.0000
  O   O1        1.0  0.1463299885304974  0.6058870178588207  0.4757080001089162  1.0000
  O   O2        1.0  0.44835064727489754  0.8357034279223381  0.07989022973994708  1.0000
  Ti  Ti1       1.0  0.4555530648650956  0.1280235873682801  0.09385787734848552  1.0000
  O   O3        1.0  0.2973960234718941  0.2207963209870007  0.7778719165755774  1.0000
  O   O4        1.0  0.9568145302974503  0.16588063014592888  0.09658585244584916  1.0000
  Ti  Ti2       1.0  0.139204759296526  0.3135157554393902  0.4618078015549663  1.0000
  O   O5        1.0  0.63793584652767  0.2756821483581986  0.45906256872479995  1.0000
