data_image0
_chemical_formula_structural       Ba2TiO4
_chemical_formula_sum              "Ba2 Ti1 O4"
_cell_length_a       4.0412187531074455
_cell_length_b       4.041297025462676
_cell_length_c       7.318623065948487
_cell_angle_alpha    106.04448505631507
_cell_angle_beta     105.99006181878961
_cell_angle_gamma    89.99357506227584

_space_group_name_H-M_alt    "P 1"
_space_group_IT_number       1

loop_
  _space_group_symop_operation_xyz
  'x, y, z'

loop_
  _atom_site_type_symbol
  _atom_site_label
  _atom_site_symmetry_multiplicity
  _atom_site_fract_x
  _atom_site_fract_y
  _atom_site_fract_z
  _atom_site_occupancy
  Ba  Ba1       1.0  0.8919614556990503  0.38238313577981753  0.6545533687055907  1.0000
  Ba  Ba2       1.0  0.6046051066344855  0.09459665112219234  0.07969403121872119  1.0000
  Ti  Ti1       1.0  0.24828164024836089  0.7384089933179148  0.3672474132761837  1.0000
  O   O1        1.0  0.10084212970740501  0.5908472308747895  0.0720009479890099  1.0000
  O   O2        1.0  0.7483747380302258  0.7385783427677891  0.3673052744665811  1.0000
  O   O3        1.0  0.3959340293164605  0.8864172408103487  0.6625874111360142  1.0000
  O   O4        1.0  0.2482591039891658  0.23865400917251006  0.36723399517405314  1.0000
