data_image0
_chemical_formula_structural       TiBaTiBaO6BaO
_chemical_formula_sum              "Ti2 Ba3 O7"
_cell_length_a       4.077616098092836
_cell_length_b       4.0755329061613494
_cell_length_c       11.122619628906248
_cell_angle_alpha    100.38774380844096
_cell_angle_beta     100.34698125527602
_cell_angle_gamma    89.69937844528802

_space_group_name_H-M_alt    "P 1"
_space_group_IT_number       1

loop_
  _space_group_symop_operation_xyz
  'x, y, z'

loop_
  _atom_site_type_symbol
  _atom_site_label
  _atom_site_symmetry_multiplicity
  _atom_site_fract_x
  _atom_site_fract_y
  _atom_site_fract_z
  _atom_site_occupancy
  Ti  Ti1       1.0  0.1842971405534214  0.6595361519405233  0.8419548181874137  1.0000
  Ba  Ba1       1.0  0.7575044338662181  0.23293953688437263  0.01813152535829259  1.0000
  Ti  Ti2       1.0  0.9535347077992524  0.42906293871881496  0.4630707818877576  1.0000
  Ba  Ba2       1.0  0.3803444970670695  0.8556643824425851  0.28682394697175534  1.0000
  O   O1        1.0  0.15819272953266206  0.12369834026297795  0.84113202841887  1.0000
  O   O2        1.0  0.8917076770028513  0.36681318102002314  0.2810760190758989  1.0000
  O   O3        1.0  0.6479579119185813  0.6336485086948309  0.8411242854654677  1.0000
  O   O4        1.0  0.06876196357383439  0.5442535525364128  0.6523984213806855  1.0000
  O   O5        1.0  0.24577207955494756  0.7217342918235419  0.02384801243853081  1.0000
  O   O6        1.0  0.48959814542628355  0.4546052620346974  0.4637151430852648  1.0000
  Ba  Ba3       1.0  0.568740274138521  0.04422425757365009  0.6524916831145369  1.0000
  O   O7        1.0  0.9794467580256733  0.9646954575795503  0.46372655587267253  1.0000
