data_image0
_chemical_formula_structural       TiO2Ba2O4TiBa2O2Ba2O2
_chemical_formula_sum              "Ti2 O10 Ba6"
_cell_length_a       6.3585322607062995
_cell_length_b       8.155964820651226
_cell_length_c       8.150190353393555
_cell_angle_alpha    120.02170972989794
_cell_angle_beta     90.01785661957419
_cell_angle_gamma    90.00109533463362

_space_group_name_H-M_alt    "P 1"
_space_group_IT_number       1

loop_
  _space_group_symop_operation_xyz
  'x, y, z'

loop_
  _atom_site_type_symbol
  _atom_site_label
  _atom_site_symmetry_multiplicity
  _atom_site_fract_x
  _atom_site_fract_y
  _atom_site_fract_z
  _atom_site_occupancy
  Ti  Ti1       1.0  0.4498440666558269  0.01519620176353986  0.16493560230277785  1.0000
  O   O1        1.0  0.5447755247673001  0.8919576199684636  0.28795201970158046  1.0000
  O   O2        1.0  0.7309567681233902  0.6817793945587431  0.4982155990031656  1.0000
  Ba  Ba1       1.0  0.9709239284936789  0.8375424894802301  0.8097562898184707  1.0000
  Ba  Ba2       1.0  0.970851897863762  0.3700894269112426  0.34237739255795463  1.0000
  O   O3        1.0  0.544374022574149  0.8921032989308455  0.9184498651649904  1.0000
  O   O4        1.0  0.30273551987532765  0.3484279656452792  0.8313955210768612  1.0000
  O   O5        1.0  0.15912198420010204  0.015046466153648953  0.16505511629830996  1.0000
  O   O6        1.0  0.23095431230965402  0.6816942727348148  0.49815755970702325  1.0000
  Ti  Ti2       1.0  0.012008349304322683  0.34831583885443246  0.8314536936512192  1.0000
  Ba  Ba3       1.0  0.4908840819556701  0.5261001646960899  0.18668754394006998  1.0000
  Ba  Ba4       1.0  0.4906554320224427  0.5261185975100252  0.6541456992667111  1.0000
  O   O7        1.0  0.5443775865531425  0.26156352637153085  0.2880974104583388  1.0000
  O   O8        1.0  0.9174957282426335  0.4713955938180137  0.07790222295166142  1.0000
  Ba  Ba5       1.0  0.9712318889237737  0.8374018783036238  0.34221776937051973  1.0000
  Ba  Ba6       1.0  0.4910689368112593  0.9935187326851004  0.6540368690294933  1.0000
  O   O9        1.0  0.9174297454904012  0.10195379322688955  0.7082110730007632  1.0000
  O   O10       1.0  0.9170827065595646  0.47161176044691144  0.7084583873012064  1.0000
