data_image0
_chemical_formula_structural       TiBaO2BaO3TiBaO
_chemical_formula_sum              "Ti2 Ba3 O6"
_cell_length_a       4.028260652502386
_cell_length_b       4.025397736009435
_cell_length_c       11.252681732177734
_cell_angle_alpha    100.3073797144058
_cell_angle_beta     100.32259039576212
_cell_angle_gamma    90.06094844131856

_space_group_name_H-M_alt    "P 1"
_space_group_IT_number       1

loop_
  _space_group_symop_operation_xyz
  'x, y, z'

loop_
  _atom_site_type_symbol
  _atom_site_label
  _atom_site_symmetry_multiplicity
  _atom_site_fract_x
  _atom_site_fract_y
  _atom_site_fract_z
  _atom_site_occupancy
  Ti  Ti1       1.0  0.48610740407611974  0.9452699169683155  0.4239755133393162  1.0000
  Ba  Ba1       1.0  0.06875610493291283  0.5279103945297866  0.5891393087961477  1.0000
  O   O1        1.0  0.7937351900038633  0.7530269872517994  0.03901857524292633  1.0000
  O   O2        1.0  0.29377355607612293  0.25310566768885306  0.03913341938348366  1.0000
  Ba  Ba2       1.0  0.701874210088157  0.16121100549263617  0.8554822481070363  1.0000
  O   O3        1.0  0.4768449018538402  0.43599077906146166  0.4054680902861131  1.0000
  O   O4        1.0  0.976888635499062  0.9360534432017754  0.4055836803725487  1.0000
  O   O5        1.0  0.19566158337551287  0.6550780987519055  0.843285993571676  1.0000
  Ti  Ti2       1.0  0.2845286182407468  0.7438319678118543  0.020654888348248288  1.0000
  Ba  Ba3       1.0  0.8853059028588319  0.34452464007665906  0.22229546161315614  1.0000
  O   O6        1.0  0.575002280807863  0.03409569873760592  0.6013748844859543  1.0000
