data_image0
_chemical_formula_structural       BaOBaTi2O3BaO3
_chemical_formula_sum              "Ba3 O7 Ti2"
_cell_length_a       4.075419690262452
_cell_length_b       4.079295033046975
_cell_length_c       11.107963562011719
_cell_angle_alpha    100.53383523340794
_cell_angle_beta     100.58131859564685
_cell_angle_gamma    89.95903481695771

_space_group_name_H-M_alt    "P 1"
_space_group_IT_number       1

loop_
  _space_group_symop_operation_xyz
  'x, y, z'

loop_
  _atom_site_type_symbol
  _atom_site_label
  _atom_site_symmetry_multiplicity
  _atom_site_fract_x
  _atom_site_fract_y
  _atom_site_fract_z
  _atom_site_occupancy
  Ba  Ba1       1.0  0.07984722764015537  0.9960488575429347  0.6471827387240894  1.0000
  O   O1        1.0  0.7561942149304338  0.6955063347259538  0.013024483917072015  1.0000
  Ba  Ba2       1.0  0.4324236651782744  0.361771306998408  0.378620744929415  1.0000
  Ti  Ti1       1.0  0.8304327669614795  0.7589973164616698  0.20240507427323662  1.0000
  Ti  Ti2       1.0  0.6818067148685455  0.5694690957077982  0.8234905125389815  1.0000
  O   O2        1.0  0.6578897810834937  0.1078983435603452  0.8242933573262294  1.0000
  O   O3        1.0  0.3643889859715431  0.7847058010979916  0.2018404074862561  1.0000
  O   O4        1.0  0.5642834464280546  0.5078902727241407  0.641245444509222  1.0000
  Ba  Ba3       1.0  0.25616234443636837  0.17775429276241111  0.012980907260596808  1.0000
  O   O5        1.0  0.8542979221184034  0.29651153005254793  0.20169386492119815  1.0000
  O   O6        1.0  0.9481865963121924  0.8790240180740705  0.3847407129911978  1.0000
  O   O7        1.0  0.14780568267590477  0.5957988016308255  0.8241284408943347  1.0000
