data_image0
_chemical_formula_structural       TiBaTiO2BaO2
_chemical_formula_sum              "Ti2 Ba2 O4"
_cell_length_a       4.130408621127959
_cell_length_b       5.845161746229225
_cell_length_c       6.287630558013915
_cell_angle_alpha    117.72154693979545
_cell_angle_beta     109.10037324383876
_cell_angle_gamma    89.98916939628435

_space_group_name_H-M_alt    "P 1"
_space_group_IT_number       1

loop_
  _space_group_symop_operation_xyz
  'x, y, z'

loop_
  _atom_site_type_symbol
  _atom_site_label
  _atom_site_symmetry_multiplicity
  _atom_site_fract_x
  _atom_site_fract_y
  _atom_site_fract_z
  _atom_site_occupancy
  Ti  Ti1       1.0  0.9138317043277943  0.02842202625704359  0.8272727603740202  1.0000
  Ba  Ba1       1.0  0.16084389689240516  0.7749049015355735  0.32041978574497615  1.0000
  Ti  Ti2       1.0  0.6205119454924125  0.23444855567614442  0.23923582392763337  1.0000
  O   O1        1.0  0.767119093098927  0.13142665218001107  0.5331575371535076  1.0000
  O   O2        1.0  0.421358812709505  0.03560885345438639  0.8423150028423504  1.0000
  Ba  Ba2       1.0  0.3734452904142779  0.487850547186764  0.7460867701309976  1.0000
  O   O3        1.0  0.11295552911647816  0.2272425270639519  0.22415508410805868  1.0000
  O   O4        1.0  0.7671210897321982  0.6314330581593237  0.5331955432762802  1.0000
