data_image0
_chemical_formula_structural       Ba2Ti2O2BaO2BaOTiO6
_chemical_formula_sum              "Ba4 Ti3 O11"
_cell_length_a       5.789432873022482
_cell_length_b       5.752561049732236
_cell_length_c       9.633316040039062
_cell_angle_alpha    106.00813427438841
_cell_angle_beta     107.46750730784319
_cell_angle_gamma    90.11567851703607

_space_group_name_H-M_alt    "P 1"
_space_group_IT_number       1

loop_
  _space_group_symop_operation_xyz
  'x, y, z'

loop_
  _atom_site_type_symbol
  _atom_site_label
  _atom_site_symmetry_multiplicity
  _atom_site_fract_x
  _atom_site_fract_y
  _atom_site_fract_z
  _atom_site_occupancy
  Ba  Ba1       1.0  0.848309999102236  0.539604352733469  0.04772262977816819  1.0000
  Ba  Ba2       1.0  0.594831517493485  0.2604714046783796  0.5409838289210984  1.0000
  Ti  Ti1       1.0  0.476502443088561  0.6513068573156604  0.30492638397041627  1.0000
  Ti  Ti2       1.0  0.9667314631070795  0.14586241546329945  0.2862803706424741  1.0000
  O   O1        1.0  0.7119775981420977  0.8649112190984093  0.28319617877896136  1.0000
  O   O2        1.0  0.5795784968006936  0.7446056206849401  0.5087719746940937  1.0000
  Ba  Ba3       1.0  0.0956671927174596  0.7327020890895228  0.5419175798614908  1.0000
  O   O3        1.0  0.46873277330904345  0.5315461251907351  0.7766217037120611  1.0000
  O   O4        1.0  0.8629897514597911  0.036579739582643885  0.07553227615493527  1.0000
  Ba  Ba4       1.0  0.3552721223869666  0.018484828240853315  0.0620662197718132  1.0000
  O   O5        1.0  0.22177479167628736  0.8641349283913453  0.28340443930954823  1.0000
  Ti  Ti3       1.0  0.2369921169395826  0.39416626260531323  0.8250101953602078  1.0000
  O   O6        1.0  0.9572075470203396  0.5311782232629938  0.7768883368176871  1.0000
  O   O7        1.0  0.7210199296715527  0.3760547452074054  0.2946042386057437  1.0000
  O   O8        1.0  0.2242530316399168  0.376272931792523  0.2947818501265617  1.0000
  O   O9        1.0  0.21958651480847072  0.06774075774497883  0.7911645610280729  1.0000
  O   O10       1.0  0.08026705025452978  0.21110317614250892  0.5104856429878658  1.0000
  O   O11       1.0  0.3445573092613076  0.5022984521905169  0.0393691990008415  1.0000
