data_image0
_chemical_formula_structural       BaTiO2
_chemical_formula_sum              "Ba1 Ti1 O2"
_cell_length_a       3.328585994047468
_cell_length_b       3.3265961969632225
_cell_length_c       6.281695365905762
_cell_angle_alpha    74.64872817476872
_cell_angle_beta     74.62629650347606
_cell_angle_gamma    59.968118992734304

_space_group_name_H-M_alt    "P 1"
_space_group_IT_number       1

loop_
  _space_group_symop_operation_xyz
  'x, y, z'

loop_
  _atom_site_type_symbol
  _atom_site_label
  _atom_site_symmetry_multiplicity
  _atom_site_fract_x
  _atom_site_fract_y
  _atom_site_fract_z
  _atom_site_occupancy
  Ba  Ba1       1.0  0.9831099353342551  0.6890336175011526  0.7220520886920138  1.0000
  Ti  Ti1       1.0  0.483259091727252  0.1890276263911331  0.22191876952794698  1.0000
  O   O1        1.0  0.7614045099655072  0.46729846985451295  0.387146279300493  1.0000
  O   O2        1.0  0.2049156893733499  0.9107243909182252  0.056858632590947214  1.0000
