data_image0
_chemical_formula_structural       BaO2Ti
_chemical_formula_sum              "Ba1 O2 Ti1"
_cell_length_a       4.007185121787679
_cell_length_b       4.148083219381299
_cell_length_c       4.010366916656494
_cell_angle_alpha    89.97225827636869
_cell_angle_beta     90.015117715117
_cell_angle_gamma    90.03261665737078

_space_group_name_H-M_alt    "P 1"
_space_group_IT_number       1

loop_
  _space_group_symop_operation_xyz
  'x, y, z'

loop_
  _atom_site_type_symbol
  _atom_site_label
  _atom_site_symmetry_multiplicity
  _atom_site_fract_x
  _atom_site_fract_y
  _atom_site_fract_z
  _atom_site_occupancy
  Ba  Ba1       1.0  0.8231989918297637  0.9499702269266861  0.8180364472059113  1.0000
  O   O1        1.0  0.8232657815089081  0.4502651592079699  0.3181730910753882  1.0000
  O   O2        1.0  0.32341285379351387  0.4503073205875437  0.8180930841793002  1.0000
  Ti  Ti1       1.0  0.3234523576839669  0.44992004665456115  0.31830527090869526  1.0000
