data_image0
_chemical_formula_structural       Ba2O3TiO2TiO
_chemical_formula_sum              "Ba2 O6 Ti2"
_cell_length_a       4.270149354328819
_cell_length_b       5.626960963760283
_cell_length_c       5.625926494598389
_cell_angle_alpha    90.1012873733675
_cell_angle_beta     90.04887933683283
_cell_angle_gamma    90.01109473202821

_space_group_name_H-M_alt    "P 1"
_space_group_IT_number       1

loop_
  _space_group_symop_operation_xyz
  'x, y, z'

loop_
  _atom_site_type_symbol
  _atom_site_label
  _atom_site_symmetry_multiplicity
  _atom_site_fract_x
  _atom_site_fract_y
  _atom_site_fract_z
  _atom_site_occupancy
  Ba  Ba1       1.0  0.9355737953017269  0.10338378596671668  0.5136721183069333  1.0000
  Ba  Ba2       1.0  0.9355930661132847  0.6033323810435153  0.013680352793723476  1.0000
  O   O1        1.0  0.8799102803995072  0.6034766942907158  0.5138276683333209  1.0000
  O   O2        1.0  0.4040098442488442  0.8534855541356686  0.2638656089366592  1.0000
  O   O3        1.0  0.4039811507706284  0.35366167296507456  0.7639156968636166  1.0000
  Ti  Ti1       1.0  0.45442414274576204  0.10321182144507592  0.013362586637704446  1.0000
  O   O4        1.0  0.40343072116140055  0.35360138219564596  0.2641175305933927  1.0000
  O   O5        1.0  0.40340513649860743  0.8538392042684266  0.7639946926567032  1.0000
  Ti  Ti2       1.0  0.454524121854012  0.6032366902540572  0.5133641360577802  1.0000
  O   O6        1.0  0.8798163691874167  0.10347207572180188  0.013793318524293727  1.0000
