data_image0
_chemical_formula_structural       BaTiBaTiO4
_chemical_formula_sum              "Ba2 Ti2 O4"
_cell_length_a       3.4736021148341734
_cell_length_b       6.859403417642179
_cell_length_c       6.213007450103761
_cell_angle_alpha    100.75068017638297
_cell_angle_beta     90.20054367896125
_cell_angle_gamma    104.61269275538322

_space_group_name_H-M_alt    "P 1"
_space_group_IT_number       1

loop_
  _space_group_symop_operation_xyz
  'x, y, z'

loop_
  _atom_site_type_symbol
  _atom_site_label
  _atom_site_symmetry_multiplicity
  _atom_site_fract_x
  _atom_site_fract_y
  _atom_site_fract_z
  _atom_site_occupancy
  Ba  Ba1       1.0  0.01903282281238389  0.03042247999845483  0.0778651180499761  1.0000
  Ti  Ti1       1.0  0.23626598470114182  0.46184839138613176  0.8522850760198385  1.0000
  Ba  Ba2       1.0  0.8331608085743576  0.6531193045134542  0.37279322006657806  1.0000
  Ti  Ti2       1.0  0.6158767479169881  0.22159430152909113  0.5983051925430412  1.0000
  O   O1        1.0  0.36441806848609265  0.7202223847777016  0.027970564740848494  1.0000
  O   O2        1.0  0.4877451576553197  0.9632150195372454  0.4225850832858386  1.0000
  O   O3        1.0  0.6738317278941568  0.33630908276439797  0.9347913586454116  1.0000
  O   O4        1.0  0.17821210225002357  0.3469063310514323  0.5157456384413659  1.0000
