data_image0
_chemical_formula_structural       TiBaO2
_chemical_formula_sum              "Ti1 Ba1 O2"
_cell_length_a       3.3080261842675984
_cell_length_b       3.3106584969806203
_cell_length_c       6.309165000915527
_cell_angle_alpha    74.79146587282189
_cell_angle_beta     74.78737438255206
_cell_angle_gamma    60.037875388778005

_space_group_name_H-M_alt    "P 1"
_space_group_IT_number       1

loop_
  _space_group_symop_operation_xyz
  'x, y, z'

loop_
  _atom_site_type_symbol
  _atom_site_label
  _atom_site_symmetry_multiplicity
  _atom_site_fract_x
  _atom_site_fract_y
  _atom_site_fract_z
  _atom_site_occupancy
  Ti  Ti1       1.0  0.3739463050851646  0.7745896583458781  0.7160297393535853  1.0000
  Ba  Ba1       1.0  0.873527944880249  0.2747832898469716  0.21615882618457963  1.0000
  O   O1        1.0  0.6519847115835148  0.05286007454814327  0.881412663819258  1.0000
  O   O2        1.0  0.09561990101568255  0.4964443515875616  0.550826068512923  1.0000
