data_image0
_chemical_formula_structural       BaOBaO3Ti
_chemical_formula_sum              "Ba2 O4 Ti1"
_cell_length_a       4.039817295629227
_cell_length_b       4.041698457516772
_cell_length_c       7.33763313293457
_cell_angle_alpha    105.94916824223168
_cell_angle_beta     105.9455568417792
_cell_angle_gamma    90.03100508254894

_space_group_name_H-M_alt    "P 1"
_space_group_IT_number       1

loop_
  _space_group_symop_operation_xyz
  'x, y, z'

loop_
  _atom_site_type_symbol
  _atom_site_label
  _atom_site_symmetry_multiplicity
  _atom_site_fract_x
  _atom_site_fract_y
  _atom_site_fract_z
  _atom_site_occupancy
  Ba  Ba1       1.0  0.26975275363630874  0.5168442974511849  0.746145940180241  1.0000
  O   O1        1.0  0.9131112660012014  0.6601467492092219  0.03329949583910145  1.0000
  Ba  Ba2       1.0  0.556878595048462  0.8036834975904613  0.32034022351359787  1.0000
  O   O2        1.0  0.4131906469171461  0.16020923961358102  0.03340617454591888  1.0000
  O   O3        1.0  0.06081012396827331  0.3075847660184259  0.32826448414827125  1.0000
  O   O4        1.0  0.7657673339465482  0.012937434724817282  0.7384348040836827  1.0000
  Ti  Ti1       1.0  0.9135079687130849  0.16027052499681102  0.03332982008171244  1.0000
