data_image0
_chemical_formula_structural       O3BaOBa2OBaO2Ti2O
_chemical_formula_sum              "O8 Ba4 Ti2"
_cell_length_a       6.185544202346481
_cell_length_b       6.230491666278619
_cell_length_c       7.543889999389648
_cell_angle_alpha    89.99455884401213
_cell_angle_beta     109.69390314131495
_cell_angle_gamma    89.95173355815601

_space_group_name_H-M_alt    "P 1"
_space_group_IT_number       1

loop_
  _space_group_symop_operation_xyz
  'x, y, z'

loop_
  _atom_site_type_symbol
  _atom_site_label
  _atom_site_symmetry_multiplicity
  _atom_site_fract_x
  _atom_site_fract_y
  _atom_site_fract_z
  _atom_site_occupancy
  O   O1        1.0  0.4134586661545108  0.6277331202801134  0.7745401865587777  1.0000
  O   O2        1.0  0.7663499255758521  0.39938748602805246  0.08386907084133571  1.0000
  O   O3        1.0  0.8667707207408564  0.8993176164200875  0.5628593800886125  1.0000
  Ba  Ba1       1.0  0.6298536427622091  0.1287636883062712  0.7971545080735214  1.0000
  O   O4        1.0  0.2191463641435955  0.1282847007948112  0.8721414978511353  1.0000
  Ba  Ba2       1.0  0.5217521077689897  0.12821278295589866  0.25529650661294306  1.0000
  Ba  Ba3       1.0  0.002732835749193141  0.6282748408380724  0.8496016597193328  1.0000
  O   O5        1.0  0.26293004123426067  0.12844805846202728  0.4844618047623048  1.0000
  Ba  Ba4       1.0  0.11056501817355736  0.6284338017345835  0.39133485915465527  1.0000
  O   O6        1.0  0.3696381185237137  0.6284635452350336  0.16221006671759514  1.0000
  O   O7        1.0  0.7658089400175083  0.8573563732854008  0.08365020779821974  1.0000
  Ti  Ti1       1.0  0.5695621289329308  0.628308824579496  0.027189483795216553  1.0000
  Ti  Ti2       1.0  0.06301151181855637  0.12835496040397737  0.6194810063093441  1.0000
  O   O8        1.0  0.8663085524689303  0.3573430526573714  0.5630659487431044  1.0000
