data_image0
_chemical_formula_structural       Ti2BaOBaOBaOBaO3
_chemical_formula_sum              "Ti2 Ba4 O6"
_cell_length_a       3.46422520299834
_cell_length_b       6.287401051286943
_cell_length_c       9.872732162475586
_cell_angle_alpha    89.93053948562785
_cell_angle_beta     79.97251322793416
_cell_angle_gamma    89.94557272802514

_space_group_name_H-M_alt    "P 1"
_space_group_IT_number       1

loop_
  _space_group_symop_operation_xyz
  'x, y, z'

loop_
  _atom_site_type_symbol
  _atom_site_label
  _atom_site_symmetry_multiplicity
  _atom_site_fract_x
  _atom_site_fract_y
  _atom_site_fract_z
  _atom_site_occupancy
  Ti  Ti1       1.0  0.8282249170295034  0.4776152614983534  0.7383171628543733  1.0000
  Ti  Ti2       1.0  0.5497562742929365  0.9772616018614513  0.3025908938460035  1.0000
  Ba  Ba1       1.0  0.0027252319764085645  0.47733960490802285  0.39743340575365715  1.0000
  O   O1        1.0  0.6098394768291571  0.2140331850011278  0.18128526083447935  1.0000
  Ba  Ba2       1.0  0.1778569282823322  0.47746421378222  0.04574206514473465  1.0000
  O   O2        1.0  0.7682750654608417  0.7144294223672503  0.8594532709938865  1.0000
  Ba  Ba3       1.0  0.375158556923978  0.9774586711911244  0.6433803509699622  1.0000
  O   O3        1.0  0.37318132059646664  0.4777398602338536  0.6481358505668617  1.0000
  Ba  Ba4       1.0  0.20004658243871884  0.9774931582275557  0.9950991829283687  1.0000
  O   O4        1.0  0.6096475809782451  0.7405394792392233  0.18140282991429382  1.0000
  O   O5        1.0  0.7680319569199044  0.24093261031783902  0.8596777505113526  1.0000
  O   O6        1.0  0.00471150888232863  0.9771405803710407  0.3928998957869689  1.0000
