data_image0
_chemical_formula_structural       OBaO2Ti
_chemical_formula_sum              "O3 Ba1 Ti1"
_cell_length_a       4.082606941738281
_cell_length_b       4.08404964927037
_cell_length_c       4.0838212966918945
_cell_angle_alpha    90.36405158032805
_cell_angle_beta     90.35280224245166
_cell_angle_gamma    89.67321209623667

_space_group_name_H-M_alt    "P 1"
_space_group_IT_number       1

loop_
  _space_group_symop_operation_xyz
  'x, y, z'

loop_
  _atom_site_type_symbol
  _atom_site_label
  _atom_site_symmetry_multiplicity
  _atom_site_fract_x
  _atom_site_fract_y
  _atom_site_fract_z
  _atom_site_occupancy
  O   O1        1.0  0.6564099098125714  0.6692526971925122  0.1432928928956451  1.0000
  Ba  Ba1       1.0  0.17250382800158306  0.6974329748478512  0.6266951215124998  1.0000
  O   O2        1.0  0.14482519876492542  0.1809800659302186  0.14359287207268617  1.0000
  O   O3        1.0  0.6565816718584815  0.18101545591050155  0.6551513997142119  1.0000
  Ti  Ti1       1.0  0.6875059321366639  0.21235410789129555  0.1119181012073426  1.0000
