data_image0
_chemical_formula_structural       TiBa2O4BaOTiO2
_chemical_formula_sum              "Ti2 Ba3 O7"
_cell_length_a       3.996496964214019
_cell_length_b       3.9977844010594303
_cell_length_c       13.604243278503418
_cell_angle_alpha    88.96379445291319
_cell_angle_beta     88.91594895638688
_cell_angle_gamma    89.99843839155481

_space_group_name_H-M_alt    "P 1"
_space_group_IT_number       1

loop_
  _space_group_symop_operation_xyz
  'x, y, z'

loop_
  _atom_site_type_symbol
  _atom_site_label
  _atom_site_symmetry_multiplicity
  _atom_site_fract_x
  _atom_site_fract_y
  _atom_site_fract_z
  _atom_site_occupancy
  Ti  Ti1       1.0  0.0014118519675722545  0.9845086832219169  0.6568895531382883  1.0000
  Ba  Ba1       1.0  0.512418479390205  0.49483306987220294  0.5040598472379823  1.0000
  Ba  Ba2       1.0  0.5311360132339931  0.5131716963259619  0.2087768157976112  1.0000
  O   O1        1.0  0.01343233433256576  0.9953938162138549  0.5041697813808552  1.0000
  O   O2        1.0  0.5236338873838704  0.004368730120667838  0.3517311309124252  1.0000
  O   O3        1.0  0.02328206999251857  0.5045221222109889  0.35173689082582293  1.0000
  O   O4        1.0  0.9946993735907266  0.9777280491435144  0.7993224224376126  1.0000
  Ba  Ba3       1.0  0.49377949781233227  0.4770039844805937  0.7994052781357717  1.0000
  O   O5        1.0  0.504439771061539  0.9865322203233575  0.6564560273087172  1.0000
  Ti  Ti2       1.0  0.02106377755713375  0.003981204456460907  0.35130418565897364  1.0000
  O   O6        1.0  0.003928165028855993  0.48691068414469496  0.6564541239237036  1.0000
  O   O7        1.0  0.03210746925102074  0.01308148140848479  0.20886527337996974  1.0000
