data_image0
_chemical_formula_structural       BaTiO2BaO3
_chemical_formula_sum              "Ba2 Ti1 O5"
_cell_length_a       5.8750770356737085
_cell_length_b       5.88045934272693
_cell_length_c       5.885112285614014
_cell_angle_alpha    95.36474722947887
_cell_angle_beta     116.46378373663018
_cell_angle_gamma    116.8123099922958

_space_group_name_H-M_alt    "P 1"
_space_group_IT_number       1

loop_
  _space_group_symop_operation_xyz
  'x, y, z'

loop_
  _atom_site_type_symbol
  _atom_site_label
  _atom_site_symmetry_multiplicity
  _atom_site_fract_x
  _atom_site_fract_y
  _atom_site_fract_z
  _atom_site_occupancy
  Ba  Ba1       1.0  0.21647674379505996  0.8372801549777571  0.9448853095503777  1.0000
  Ti  Ti1       1.0  0.7514019554171419  0.5980174505259311  0.25072575467156916  1.0000
  O   O1        1.0  0.8614128712039908  0.8794967225075447  0.508246198016108  1.0000
  O   O2        1.0  0.6307241169106061  0.3084664085029287  0.35920481180361574  1.0000
  Ba  Ba2       1.0  0.18761179492335392  0.298203189092542  0.412753944193096  1.0000
  O   O3        1.0  0.0995241162036841  0.6664105055922617  0.2822471110788699  1.0000
  O   O4        1.0  0.34736677976460395  0.4627252411260217  0.9142212189615244  1.0000
  O   O5        1.0  0.5933020198342036  0.70654666670999  0.9094911755141949  1.0000
