data_image0
_chemical_formula_structural       BaTiO2Ba2O2TiO3TiO2TiO2
_chemical_formula_sum              "Ba3 Ti4 O11"
_cell_length_a       4.882045211808918
_cell_length_b       5.900885261770678
_cell_length_c       10.759870529174805
_cell_angle_alpha    90.79502967494705
_cell_angle_beta     101.98902606644818
_cell_angle_gamma    89.46030147286427

_space_group_name_H-M_alt    "P 1"
_space_group_IT_number       1

loop_
  _space_group_symop_operation_xyz
  'x, y, z'

loop_
  _atom_site_type_symbol
  _atom_site_label
  _atom_site_symmetry_multiplicity
  _atom_site_fract_x
  _atom_site_fract_y
  _atom_site_fract_z
  _atom_site_occupancy
  Ba  Ba1       1.0  0.9315521914807883  0.3370222427469367  0.4610628770478727  1.0000
  Ti  Ti1       1.0  0.5203634233384968  0.8319539874201789  0.5383016694233046  1.0000
  O   O1        1.0  0.7307297105791032  0.32086474526342473  0.9364436754113347  1.0000
  O   O2        1.0  0.18493667150310417  0.015274458000404206  0.9173315693621862  1.0000
  Ba  Ba2       1.0  0.6855031105893657  0.8020501046549227  0.9502067006344816  1.0000
  Ba  Ba3       1.0  0.27521352158999596  0.8005808766918819  0.2268215324452797  1.0000
  O   O3        1.0  0.05825390924662199  0.6202577502039763  0.8140097836308516  1.0000
  O   O4        1.0  0.2825250738864154  0.43245858831629186  0.048714162959618335  1.0000
  Ti  Ti2       1.0  0.6438938828715103  0.32294294035828375  0.10240780564176885  1.0000
  O   O5        1.0  0.4036932968189401  0.061863478820242374  0.4357823206087158  1.0000
  O   O6        1.0  0.40311350520988376  0.583976533086233  0.44722501384255986  1.0000
  O   O7        1.0  0.7171801819372496  0.04706908673245326  0.17026868779811258  1.0000
  Ti  Ti3       1.0  0.06107237973206788  0.31922254086567137  0.8811418850167302  1.0000
  O   O8        1.0  0.9113464116554417  0.8084502884860749  0.5632524888153565  1.0000
  O   O9        1.0  0.46251960906611395  0.8702983707852651  0.7085659758149504  1.0000
  Ti  Ti4       1.0  0.1034641614259212  0.8939901757446724  0.7309157204482419  1.0000
  O   O10       1.0  0.9897668445677519  0.20063592692577953  0.709007313797131  1.0000
  O   O11       1.0  0.802459004573504  0.5424877285246424  0.20785448086945918  1.0000
