data_image0
_chemical_formula_structural       TiBaTi2OTiO2BaOBaO2BaO4
_chemical_formula_sum              "Ti4 Ba4 O10"
_cell_length_a       5.834163268377778
_cell_length_b       5.844175258622929
_cell_length_c       9.001763343811035
_cell_angle_alpha    108.94069024250003
_cell_angle_beta     108.92618847313418
_cell_angle_gamma    90.00518654029281

_space_group_name_H-M_alt    "P 1"
_space_group_IT_number       1

loop_
  _space_group_symop_operation_xyz
  'x, y, z'

loop_
  _atom_site_type_symbol
  _atom_site_label
  _atom_site_symmetry_multiplicity
  _atom_site_fract_x
  _atom_site_fract_y
  _atom_site_fract_z
  _atom_site_occupancy
  Ti  Ti1       1.0  0.6755906360051347  0.8068767484186237  0.26045031037125627  1.0000
  Ba  Ba1       1.0  0.8085528266017927  0.4785071827953007  0.5262410461881715  1.0000
  Ti  Ti2       1.0  0.9255730433361736  0.09701684740715227  0.7604716818632397  1.0000
  Ti  Ti3       1.0  0.17563689528714582  0.3877508420530254  0.2604991953372713  1.0000
  O   O1        1.0  0.5581111666282833  0.7491914109576663  0.02485193255203948  1.0000
  Ti  Ti4       1.0  0.425837367397389  0.5969088906669402  0.7606113944189681  1.0000
  O   O2        1.0  0.6792022707231582  0.3502849702406392  0.767384306347946  1.0000
  O   O3        1.0  0.7932140813692673  0.9854662380486935  0.4958094163605814  1.0000
  Ba  Ba2       1.0  0.5427871680241183  0.21262130579243546  0.9947066673955448  1.0000
  O   O4        1.0  0.9254890891155603  0.5969286389079246  0.2606335880111987  1.0000
  Ba  Ba3       1.0  0.3084775713053448  0.9813347381344881  0.526348671769777  1.0000
  O   O5        1.0  0.42525988187276714  0.5975977220151012  0.2604010972434033  1.0000
  O   O6        1.0  0.1791545230435026  0.35029608790972727  0.7673468334567035  1.0000
  Ba  Ba4       1.0  0.04284163150481096  0.7155309823778476  0.9945966751033598  1.0000
  O   O7        1.0  0.17222052314339042  0.8433688231917408  0.7535612377574017  1.0000
  O   O8        1.0  0.2934813500947282  0.44380110344887147  0.49565730120539836  1.0000
  O   O9        1.0  0.6722399821939572  0.8434789183922953  0.7535849694698711  1.0000
  O   O10       1.0  0.058001088649776184  0.20885441996775966  0.02513551986529261  1.0000
