data_image0
_chemical_formula_structural       BaTiO3Ba
_chemical_formula_sum              "Ba2 Ti1 O3"
_cell_length_a       3.963114587911878
_cell_length_b       3.9598934422235117
_cell_length_c       9.11053466796875
_cell_angle_alpha    102.3472426679265
_cell_angle_beta     102.50168116477283
_cell_angle_gamma    90.0716034754219

_space_group_name_H-M_alt    "P 1"
_space_group_IT_number       1

loop_
  _space_group_symop_operation_xyz
  'x, y, z'

loop_
  _atom_site_type_symbol
  _atom_site_label
  _atom_site_symmetry_multiplicity
  _atom_site_fract_x
  _atom_site_fract_y
  _atom_site_fract_z
  _atom_site_occupancy
  Ba  Ba1       1.0  0.14827747652721474  0.014425246866453934  0.7436608717856285  1.0000
  Ti  Ti1       1.0  0.5248122361560241  0.39218613631240246  0.4961602889747177  1.0000
  O   O1        1.0  0.41437655608724927  0.2829757174164585  0.2749723464673991  1.0000
  O   O2        1.0  0.03490827937786574  0.4022329931485147  0.5164651995758907  1.0000
  O   O3        1.0  0.5349929162794422  0.9023033882913778  0.5167396006392639  1.0000
  Ba  Ba2       1.0  0.9101011684593316  0.7786919866332666  0.26639685204824354  1.0000
