data_image0
_chemical_formula_structural       BaTiO2
_chemical_formula_sum              "Ba1 Ti1 O2"
_cell_length_a       3.3061209564297114
_cell_length_b       3.304927461677
_cell_length_c       6.332179069519043
_cell_angle_alpha    74.91453190614216
_cell_angle_beta     74.90382940390947
_cell_angle_gamma    60.08201886728897

_space_group_name_H-M_alt    "P 1"
_space_group_IT_number       1

loop_
  _space_group_symop_operation_xyz
  'x, y, z'

loop_
  _atom_site_type_symbol
  _atom_site_label
  _atom_site_symmetry_multiplicity
  _atom_site_fract_x
  _atom_site_fract_y
  _atom_site_fract_z
  _atom_site_occupancy
  Ba  Ba1       1.0  0.3529083903726013  0.8657163725654332  0.25416748748271323  1.0000
  Ti  Ti1       1.0  0.8528071509273826  0.36548101211291334  0.7545280686493987  1.0000
  O   O1        1.0  0.5746254577773809  0.08732175295271126  0.5890398219966667  1.0000
  O   O2        1.0  0.13114431968540546  0.6438725857399777  0.9194605619329478  1.0000
