data_image0
_chemical_formula_structural       TiBaOTiBaTiOBaO4TiO5
_chemical_formula_sum              "Ti4 Ba3 O11"
_cell_length_a       5.906474768258539
_cell_length_b       6.349646195188233
_cell_length_c       9.963743209838867
_cell_angle_alpha    97.89124809046197
_cell_angle_beta     91.22724406796056
_cell_angle_gamma    104.14402018441453

_space_group_name_H-M_alt    "P 1"
_space_group_IT_number       1

loop_
  _space_group_symop_operation_xyz
  'x, y, z'

loop_
  _atom_site_type_symbol
  _atom_site_label
  _atom_site_symmetry_multiplicity
  _atom_site_fract_x
  _atom_site_fract_y
  _atom_site_fract_z
  _atom_site_occupancy
  Ti  Ti1       1.0  0.32567892911836  0.15407997917947577  0.5251785667295698  1.0000
  Ba  Ba1       1.0  0.7716226781998784  0.16783504870658944  0.25377678184465025  1.0000
  O   O1        1.0  0.3385476035619677  0.44930001473438547  0.5296689020504204  1.0000
  Ti  Ti2       1.0  0.46921497757372105  0.5601606326170704  0.18765740972672973  1.0000
  Ba  Ba2       1.0  0.25053457005433954  0.9628207110128898  0.929143687340019  1.0000
  Ti  Ti3       1.0  0.2405633279268833  0.48889258950196113  0.7117593810230853  1.0000
  O   O2        1.0  0.16063191347377473  0.47829206589837936  0.24529142312849223  1.0000
  Ba  Ba3       1.0  0.751100249123877  0.7656430912239557  0.5786144359835905  1.0000
  O   O3        1.0  0.6028623253373159  0.10391368780530072  0.5016541936785446  1.0000
  O   O4        1.0  0.10388501962210306  0.9688518632700661  0.39648138891679724  1.0000
  O   O5        1.0  0.391114517598238  0.8238845868044786  0.16063809524234404  1.0000
  O   O6        1.0  0.001964840020744324  0.6062612452749998  0.734680880004139  1.0000
  Ti  Ti4       1.0  0.06689192078857943  0.7491388577564154  0.2418903112127912  1.0000
  O   O7        1.0  0.7357884133648409  0.6010981378088596  0.30617629683857317  1.0000
  O   O8        1.0  0.9363772427997404  0.8435232522341302  0.1095431469997024  1.0000
  O   O9        1.0  0.49471144032038566  0.3395189780534472  0.06700366908812129  1.0000
  O   O10       1.0  0.21646549611977522  0.16794033800707384  0.701793420581507  1.0000
  O   O11       1.0  0.47677709192653656  0.6959820557934199  0.792586780525277  1.0000
