data_image0
_chemical_formula_structural       BaOBaOTiO3Ba
_chemical_formula_sum              "Ba3 O5 Ti1"
_cell_length_a       3.9774370013002716
_cell_length_b       6.1933869563628186
_cell_length_c       7.326631069183349
_cell_angle_alpha    114.91692005609191
_cell_angle_beta     105.68243738173376
_cell_angle_gamma    89.99409495666475

_space_group_name_H-M_alt    "P 1"
_space_group_IT_number       1

loop_
  _space_group_symop_operation_xyz
  'x, y, z'

loop_
  _atom_site_type_symbol
  _atom_site_label
  _atom_site_symmetry_multiplicity
  _atom_site_fract_x
  _atom_site_fract_y
  _atom_site_fract_z
  _atom_site_occupancy
  Ba  Ba1       1.0  0.3190660239543816  0.06426761393746455  0.8423256289193289  1.0000
  O   O1        1.0  0.49276582723139534  0.9649646379793414  0.18915445200356776  1.0000
  Ba  Ba2       1.0  0.10842926437367456  0.35349518158942284  0.42077836838109717  1.0000
  O   O2        1.0  0.49266156359774177  0.5103314488198442  0.1893798882899358  1.0000
  Ti  Ti1       1.0  0.6089060624096507  0.8535249800882335  0.4209454725002398  1.0000
  O   O3        1.0  0.7240087014596495  0.19662030900987237  0.6523778955519229  1.0000
  O   O4        1.0  0.10818810553942224  0.8534493841716121  0.42089330535404085  1.0000
  O   O5        1.0  0.7242173202819494  0.7420783447766982  0.6527251558430645  1.0000
  Ba  Ba3       1.0  0.8980649195616499  0.6427201652317371  0.9995174122739283  1.0000
