data_image0
_chemical_formula_structural       BaOBaTiO3
_chemical_formula_sum              "Ba2 O4 Ti1"
_cell_length_a       4.037004544538228
_cell_length_b       4.038282031928307
_cell_length_c       7.302722454071045
_cell_angle_alpha    106.22656328303418
_cell_angle_beta     106.18718898262163
_cell_angle_gamma    90.08451942604701

_space_group_name_H-M_alt    "P 1"
_space_group_IT_number       1

loop_
  _space_group_symop_operation_xyz
  'x, y, z'

loop_
  _atom_site_type_symbol
  _atom_site_label
  _atom_site_symmetry_multiplicity
  _atom_site_fract_x
  _atom_site_fract_y
  _atom_site_fract_z
  _atom_site_occupancy
  Ba  Ba1       1.0  0.13495110430004578  0.2428590325632688  0.3832323868271122  1.0000
  O   O1        1.0  0.7794099622686403  0.3874717412816303  0.6710937941731324  1.0000
  Ba  Ba2       1.0  0.4240582794311656  0.5319686179311798  0.9588237083032493  1.0000
  Ti  Ti1       1.0  0.7796401204683338  0.8873778236905558  0.6710691419797151  1.0000
  O   O2        1.0  0.2793406982646433  0.8874054193956727  0.6710450960065151  1.0000
  O   O3        1.0  0.6306109420799144  0.7386498700497566  0.3749525055369995  1.0000
  O   O4        1.0  0.9283583671753585  0.03626711871897008  0.9672479530056437  1.0000
