data_image0
_chemical_formula_structural       TiO2BaO
_chemical_formula_sum              "Ti1 O3 Ba1"
_cell_length_a       4.0755461122594445
_cell_length_b       4.090270774830209
_cell_length_c       4.082381248474121
_cell_angle_alpha    90.35271350177425
_cell_angle_beta     90.37969951712672
_cell_angle_gamma    89.68989825211185

_space_group_name_H-M_alt    "P 1"
_space_group_IT_number       1

loop_
  _space_group_symop_operation_xyz
  'x, y, z'

loop_
  _atom_site_type_symbol
  _atom_site_label
  _atom_site_symmetry_multiplicity
  _atom_site_fract_x
  _atom_site_fract_y
  _atom_site_fract_z
  _atom_site_occupancy
  Ti  Ti1       1.0  0.6110052604597958  0.4277216307525418  0.07809127461270833  1.0000
  O   O1        1.0  0.5805680224226283  0.8834171644101881  0.1091282194700788  1.0000
  O   O2        1.0  0.5806116815040239  0.39621046193300163  0.6212140702305705  1.0000
  Ba  Ba1       1.0  0.09636717399790685  0.9121785940194711  0.5929242452480616  1.0000
  O   O3        1.0  0.06929917959168344  0.3953530131635603  0.10990687626532503  1.0000
