data_image0
_chemical_formula_structural       O2TiBa2OTiO3
_chemical_formula_sum              "O6 Ti2 Ba2"
_cell_length_a       5.711564655846399
_cell_length_b       5.708366301188924
_cell_length_c       5.714432239532471
_cell_angle_alpha    90.56971540457911
_cell_angle_beta     119.55213471007136
_cell_angle_gamma    119.59734921502445

_space_group_name_H-M_alt    "P 1"
_space_group_IT_number       1

loop_
  _space_group_symop_operation_xyz
  'x, y, z'

loop_
  _atom_site_type_symbol
  _atom_site_label
  _atom_site_symmetry_multiplicity
  _atom_site_fract_x
  _atom_site_fract_y
  _atom_site_fract_z
  _atom_site_occupancy
  O   O1        1.0  0.2981237839469566  0.7357509844601983  0.20819920437407902  1.0000
  O   O2        1.0  0.7861944460693775  0.23516051045027817  0.19636583127104265  1.0000
  Ti  Ti1       1.0  0.3276742242966618  0.009424224268540948  0.9434967255139789  1.0000
  Ba  Ba1       1.0  0.8126360299734312  0.7501293733084003  0.19903764330595203  1.0000
  Ba  Ba2       1.0  0.8126332749148484  0.25013127599888346  0.6990334265443489  1.0000
  O   O3        1.0  0.29624983438509495  0.24278321778654344  0.20615701602370406  1.0000
  Ti  Ti2       1.0  0.32767297921206234  0.5094177825176388  0.4434951731934282  1.0000
  O   O4        1.0  0.29625305235250626  0.7427793153700142  0.7061710918240292  1.0000
  O   O5        1.0  0.786178305247312  0.7351454374192355  0.6963607685506034  1.0000
  O   O6        1.0  0.2981163996150745  0.23573896633119856  0.7081866495906606  1.0000
