data_image0
_chemical_formula_structural       TiBa2OBaO5Ti
_chemical_formula_sum              "Ti2 Ba3 O6"
_cell_length_a       4.026075841978316
_cell_length_b       4.025736435988818
_cell_length_c       11.260798454284668
_cell_angle_alpha    100.2929128991032
_cell_angle_beta     100.31680528316613
_cell_angle_gamma    90.02855974451329

_space_group_name_H-M_alt    "P 1"
_space_group_IT_number       1

loop_
  _space_group_symop_operation_xyz
  'x, y, z'

loop_
  _atom_site_type_symbol
  _atom_site_label
  _atom_site_symmetry_multiplicity
  _atom_site_fract_x
  _atom_site_fract_y
  _atom_site_fract_z
  _atom_site_occupancy
  Ti  Ti1       1.0  0.2809349438783216  0.9500819570877934  0.7652022072788521  1.0000
  Ba  Ba1       1.0  0.06504631350609905  0.7339933096619036  0.33360551408110684  1.0000
  Ba  Ba2       1.0  0.6981740604362655  0.3674288401140871  0.600064446452975  1.0000
  O   O1        1.0  0.19214172167403218  0.8613592561805762  0.5879117526113765  1.0000
  Ba  Ba3       1.0  0.8816421258869931  0.5507287680282311  0.9668115635048029  1.0000
  O   O2        1.0  0.9732155052449495  0.1422665514446156  0.15023168380947433  1.0000
  O   O3        1.0  0.4732071213937315  0.6422418497781957  0.15016252777524344  1.0000
  O   O4        1.0  0.5712145604978021  0.2401224118282503  0.3457597031590808  1.0000
  O   O5        1.0  0.290142500241237  0.4592606491606561  0.7834817346559239  1.0000
  O   O6        1.0  0.7901462334787883  0.9592723555076771  0.7834522060651317  1.0000
  Ti  Ti2       1.0  0.48238250974494956  0.15140752020843348  0.16846548194336863  1.0000
