data_image0
_chemical_formula_structural       BaTiOBaTiO3
_chemical_formula_sum              "Ba2 Ti2 O4"
_cell_length_a       3.7887231467969857
_cell_length_b       3.794421684224917
_cell_length_c       10.923460960388182
_cell_angle_alpha    90.00444212736437
_cell_angle_beta     90.09884900612157
_cell_angle_gamma    90.01948220401505

_space_group_name_H-M_alt    "P 1"
_space_group_IT_number       1

loop_
  _space_group_symop_operation_xyz
  'x, y, z'

loop_
  _atom_site_type_symbol
  _atom_site_label
  _atom_site_symmetry_multiplicity
  _atom_site_fract_x
  _atom_site_fract_y
  _atom_site_fract_z
  _atom_site_occupancy
  Ba  Ba1       1.0  0.013947676754077416  0.023462224802187112  0.550132295291147  1.0000
  Ti  Ti1       1.0  0.5151724848619252  0.5239179342464664  0.7902423153173567  1.0000
  O   O1        1.0  0.015508189385806507  0.5238645567393923  0.8570611212963358  1.0000
  Ba  Ba2       1.0  0.5169792210374266  0.5240347976146663  0.16412108082766172  1.0000
  Ti  Ti2       1.0  0.015988948882915202  0.023842710320855665  0.9235200058853859  1.0000
  O   O2        1.0  0.0168290132144336  0.024115246355617386  0.09561716462690817  1.0000
  O   O3        1.0  0.5140069423123492  0.5235517102513418  0.6180255495335556  1.0000
  O   O4        1.0  0.5156362930081968  0.02394629499156447  0.855900268424888  1.0000
