data_image0
_chemical_formula_structural       BaOTiO
_chemical_formula_sum              "Ba1 O2 Ti1"
_cell_length_a       3.295715535342291
_cell_length_b       3.2941287630004767
_cell_length_c       6.281652450561523
_cell_angle_alpha    74.84713884238793
_cell_angle_beta     74.81332127647107
_cell_angle_gamma    60.05996516367642

_space_group_name_H-M_alt    "P 1"
_space_group_IT_number       1

loop_
  _space_group_symop_operation_xyz
  'x, y, z'

loop_
  _atom_site_type_symbol
  _atom_site_label
  _atom_site_symmetry_multiplicity
  _atom_site_fract_x
  _atom_site_fract_y
  _atom_site_fract_z
  _atom_site_occupancy
  Ba  Ba1       1.0  0.5300698580989173  0.48784782599498683  0.48883753011357844  1.0000
  O   O1        1.0  0.7524261915149166  0.7097070260397303  0.8224797479462451  1.0000
  Ti  Ti1       1.0  0.030647165044361015  0.9874800542116308  0.9888335055033795  1.0000
  O   O2        1.0  0.308212543750657  0.2656641546450004  0.15517845630360233  1.0000
