data_image0
_chemical_formula_structural       OBa2OTiBaO2
_chemical_formula_sum              "O4 Ba3 Ti1"
_cell_length_a       6.1123078949307805
_cell_length_b       6.101704940227639
_cell_length_c       6.715286731719971
_cell_angle_alpha    116.8768324772777
_cell_angle_beta     89.88746148163804
_cell_angle_gamma    119.71627819750326

_space_group_name_H-M_alt    "P 1"
_space_group_IT_number       1

loop_
  _space_group_symop_operation_xyz
  'x, y, z'

loop_
  _atom_site_type_symbol
  _atom_site_label
  _atom_site_symmetry_multiplicity
  _atom_site_fract_x
  _atom_site_fract_y
  _atom_site_fract_z
  _atom_site_occupancy
  O   O1        1.0  0.6490808437643228  0.7853288647380214  0.2440608645578169  1.0000
  Ba  Ba1       1.0  0.3497464185972373  0.19045277511579406  0.13875244744881385  1.0000
  Ba  Ba2       1.0  0.1253428538191704  0.7271504059846101  0.47578174407982166  1.0000
  O   O2        1.0  0.8920032713053645  0.7147829828094128  0.8343155359057515  1.0000
  Ti  Ti1       1.0  0.5997881862731375  0.67934432935825  0.9337952777497712  1.0000
  Ba  Ba3       1.0  0.8568639958943108  0.20230042415409005  0.7019817313763183  1.0000
  O   O3        1.0  0.49767957236754073  0.8718517100864057  0.8482729676062406  1.0000
  O   O4        1.0  0.33039087263077177  0.2832942759996338  0.781356981828268  1.0000
