data_image587
_chemical_formula_structural       TiBa2OBaO3TiO5
_chemical_formula_sum              "Ti2 Ba3 O9"
_cell_length_a       5.937582030262096
_cell_length_b       5.944663966996856
_cell_length_c       7.941683292388916
_cell_angle_alpha    68.06053873710262
_cell_angle_beta     68.12935225684332
_cell_angle_gamma    60.13096591426749

_space_group_name_H-M_alt    "P 1"
_space_group_IT_number       1

loop_
  _space_group_symop_operation_xyz
  'x, y, z'

loop_
  _atom_site_type_symbol
  _atom_site_label
  _atom_site_symmetry_multiplicity
  _atom_site_fract_x
  _atom_site_fract_y
  _atom_site_fract_z
  _atom_site_occupancy
  Ti  Ti1       1.0  0.18622626364231115  0.5782842040061951  0.3980921804904938  1.0000
  Ba  Ba1       1.0  0.022093800827860846  0.4132734835147857  0.8937193751335145  1.0000
  Ba  Ba2       1.0  0.7930846214294434  0.1840924471616745  0.5801705718040466  1.0000
  O   O1        1.0  0.10076174139976501  0.4904640316963196  0.2076304703950882  1.0000
  Ba  Ba3       1.0  0.5819146633148193  0.9725678563117981  0.21409651637077332  1.0000
  O   O2        1.0  0.2993195354938507  0.6909036636352539  0.526591956615448  1.0000
  O   O3        1.0  0.5210667848587037  0.9119609594345092  0.8894650936126709  1.0000
  O   O4        1.0  0.296800822019577  0.22547855973243716  0.5286897420883179  1.0000
  Ti  Ti2       1.0  0.3220735788345337  0.7121543288230896  0.9950034022331238  1.0000
  O   O5        1.0  0.8349092602729797  0.6876375675201416  0.5306150317192078  1.0000
  O   O6        1.0  0.5203558206558228  0.4185624420642853  0.8904029726982117  1.0000
  O   O7        1.0  0.02694763243198402  0.910793900489807  0.8920938372612  1.0000
  O   O8        1.0  0.5543261766433716  0.48992171883583063  0.20693233609199524  1.0000
  O   O9        1.0  0.09920874238014225  0.9455779790878296  0.20447087287902832  1.0000
