data_image450
_chemical_formula_structural       BaTiBaOTiO4
_chemical_formula_sum              "Ba2 Ti2 O5"
_cell_length_a       4.076490998731432
_cell_length_b       6.000765926801157
_cell_length_c       6.4437432289123535
_cell_angle_alpha    105.44226036107223
_cell_angle_beta     89.98611673093224
_cell_angle_gamma    109.78535822918391

_space_group_name_H-M_alt    "P 1"
_space_group_IT_number       1

loop_
  _space_group_symop_operation_xyz
  'x, y, z'

loop_
  _atom_site_type_symbol
  _atom_site_label
  _atom_site_symmetry_multiplicity
  _atom_site_fract_x
  _atom_site_fract_y
  _atom_site_fract_z
  _atom_site_occupancy
  Ba  Ba1       1.0  0.40195995569229126  0.1650051325559616  0.025127081200480465  1.0000
  Ti  Ti1       1.0  0.9637772440910339  0.28869542479515076  0.6059564352035522  1.0000
  Ba  Ba2       1.0  0.20880979299545288  0.7767953276634216  0.38207432627677923  1.0000
  O   O1        1.0  0.6545336842536926  0.6684423685073853  0.09255332499742512  1.0000
  Ti  Ti2       1.0  0.6472764015197754  0.6535763144493103  0.800876021385193  1.0000
  O   O2        1.0  0.956244170665741  0.2738683223724365  0.31410497426986694  1.0000
  O   O3        1.0  0.14502215385437012  0.6489700675010681  0.7652146220207215  1.0000
  O   O4        1.0  0.8055406808853149  0.9710728526115417  0.703444540500641  1.0000
  O   O5        1.0  0.4659695029258728  0.2936515212059021  0.6422467231750488  1.0000
