data_image421
_chemical_formula_structural       Ti2BaOBaOBaOBaO3
_chemical_formula_sum              "Ti2 Ba4 O6"
_cell_length_a       3.46422520299834
_cell_length_b       6.287401051286943
_cell_length_c       9.872732162475586
_cell_angle_alpha    89.93053948562785
_cell_angle_beta     79.97251322793416
_cell_angle_gamma    89.94557272802514

_space_group_name_H-M_alt    "P 1"
_space_group_IT_number       1

loop_
  _space_group_symop_operation_xyz
  'x, y, z'

loop_
  _atom_site_type_symbol
  _atom_site_label
  _atom_site_symmetry_multiplicity
  _atom_site_fract_x
  _atom_site_fract_y
  _atom_site_fract_z
  _atom_site_occupancy
  Ti  Ti1       1.0  0.8356294631958009  0.4768453240394593  0.7276511788368225  1.0000
  Ti  Ti2       1.0  0.5425576567649841  0.9778869152069092  0.3130872845649719  1.0000
  Ba  Ba1       1.0  0.006560344714671374  0.477715402841568  0.3861604630947113  1.0000
  O   O1        1.0  0.5998575091362  0.22280247509479523  0.19892685115337372  1.0000
  Ba  Ba2       1.0  0.18204189836978915  0.4775281250476837  0.03803719952702522  1.0000
  O   O2        1.0  0.7793540358543397  0.7222779989242554  0.8398741483688354  1.0000
  Ba  Ba3       1.0  0.3706600964069367  0.9771511554718018  0.6541258692741394  1.0000
  O   O3        1.0  0.38221478462219244  0.4774245917797089  0.6338815689086914  1.0000
  Ba  Ba4       1.0  0.19586169719696048  0.977583408355713  0.0029540061950683594  1.0000
  O   O4        1.0  0.5990406274795532  0.7328549027442933  0.20043526589870453  1.0000
  O   O5        1.0  0.778275489807129  0.2323192358016968  0.8418987989425659  1.0000
  O   O6        1.0  0.9954017400741578  0.9770581126213074  0.4083852767944336  1.0000
