data_image316
_chemical_formula_structural       BaOTiO4TiBa
_chemical_formula_sum              "Ba2 O5 Ti2"
_cell_length_a       5.691400798518157
_cell_length_b       5.693924408748014
_cell_length_c       5.813239574432373
_cell_angle_alpha    119.29112506959471
_cell_angle_beta     119.17109255557197
_cell_angle_gamma    89.91348483508122

_space_group_name_H-M_alt    "P 1"
_space_group_IT_number       1

loop_
  _space_group_symop_operation_xyz
  'x, y, z'

loop_
  _atom_site_type_symbol
  _atom_site_label
  _atom_site_symmetry_multiplicity
  _atom_site_fract_x
  _atom_site_fract_y
  _atom_site_fract_z
  _atom_site_occupancy
  Ba  Ba1       1.0  0.4935951232910156  0.7180289626121521  0.9808188080787659  1.0000
  O   O1        1.0  0.9951408505439758  0.21880008280277252  0.48198387026786804  1.0000
  Ti  Ti1       1.0  0.7633543014526367  0.48850056529045105  0.5204485654830933  1.0000
  O   O2        1.0  0.9939852952957153  0.7188775539398192  0.9807301163673401  1.0000
  O   O3        1.0  0.4938676357269287  0.7195921540260315  0.48198381066322327  1.0000
  O   O4        1.0  0.4943597614765167  0.21898667514324188  0.480653315782547  1.0000
  O   O5        1.0  0.9927121996879578  0.7174161672592163  0.47923150658607483  1.0000
  Ti  Ti2       1.0  0.22365877032279968  0.9487593173980713  0.4419698715209961  1.0000
  Ba  Ba2       1.0  0.9935464262962341  0.2185835987329483  0.9805534482002258  1.0000
