data_image366
_chemical_formula_structural       Ba2OTiO2BaO2TiO2
_chemical_formula_sum              "Ba3 O7 Ti2"
_cell_length_a       4.069530578623329
_cell_length_b       4.070646432945812
_cell_length_c       11.121822357177734
_cell_angle_alpha    100.51569254706281
_cell_angle_beta     100.48390619817131
_cell_angle_gamma    89.99005787720604

_space_group_name_H-M_alt    "P 1"
_space_group_IT_number       1

loop_
  _space_group_symop_operation_xyz
  'x, y, z'

loop_
  _atom_site_type_symbol
  _atom_site_label
  _atom_site_symmetry_multiplicity
  _atom_site_fract_x
  _atom_site_fract_y
  _atom_site_fract_z
  _atom_site_occupancy
  Ba  Ba1       1.0  0.3049967586994171  0.5374847054481506  0.494132786989212  1.0000
  Ba  Ba2       1.0  0.49240776896476746  0.7225337624549867  0.8605850338935852  1.0000
  O   O1        1.0  0.8046990036964417  0.05087889730930329  0.49455940723419184  1.0000
  Ti  Ti1       1.0  0.6918882727622986  0.930362105369568  0.3042793571949005  1.0000
  O   O2        1.0  0.3866046369075775  0.1433900147676468  0.6835689544677734  1.0000
  O   O3        1.0  0.9838665127754211  0.23625572025775912  0.8656347990036011  1.0000
  Ba  Ba3       1.0  0.11662173271179199  0.35575795173645025  0.12833049893379211  1.0000
  O   O4        1.0  0.22288371622562408  0.9537814259529115  0.30512577295303345  1.0000
  O   O5        1.0  0.8951483964920044  0.652738094329834  0.683314859867096  1.0000
  Ti  Ti2       1.0  0.9194598197937012  0.1198832541704178  0.6848074793815613  1.0000
  O   O6        1.0  0.7143635749816895  0.4638225436210633  0.3052555024623871  1.0000
  O   O7        1.0  0.6256587505340576  0.8655490875244142  0.1240716651082039  1.0000
