data_image42
_chemical_formula_structural       TiOBaTiOBaO4
_chemical_formula_sum              "Ti2 O6 Ba2"
_cell_length_a       5.703683194233373
_cell_length_b       5.707004967646005
_cell_length_c       5.706470012664795
_cell_angle_alpha    60.107046265814894
_cell_angle_beta     60.05293623182899
_cell_angle_gamma    60.09847909249453

_space_group_name_H-M_alt    "P 1"
_space_group_IT_number       1

loop_
  _space_group_symop_operation_xyz
  'x, y, z'

loop_
  _atom_site_type_symbol
  _atom_site_label
  _atom_site_symmetry_multiplicity
  _atom_site_fract_x
  _atom_site_fract_y
  _atom_site_fract_z
  _atom_site_occupancy
  Ti  Ti1       1.0  0.8098787069320679  0.9187571406364441  0.36418771743774414  1.0000
  O   O1        1.0  0.5599110722541809  0.16855975985527039  0.613819420337677  1.0000
  Ba  Ba1       1.0  0.5598175525665283  0.6686824560165405  0.11391963809728622  1.0000
  Ti  Ti2       1.0  0.3099466264247894  0.4187495708465576  0.8641575574874878  1.0000
  O   O2        1.0  0.5599454045295715  0.6687417030334473  0.6140105128288269  1.0000
  Ba  Ba2       1.0  0.05968712642788887  0.1687210649251938  0.6138732433319092  1.0000
  O   O3        1.0  0.05983934924006462  0.6687567830085754  0.6136804223060608  1.0000
  O   O4        1.0  0.05970723181962967  0.6688242554664612  0.11397180706262589  1.0000
  O   O5        1.0  0.5601085424423218  0.16850005090236664  0.11399535834789276  1.0000
  O   O6        1.0  0.05981693044304848  0.1687495857477188  0.11374593526124954  1.0000
