data_image326
_chemical_formula_structural       TiBaO2
_chemical_formula_sum              "Ti1 Ba1 O2"
_cell_length_a       4.0485768412168115
_cell_length_b       4.046841715711859
_cell_length_c       6.722260475158691
_cell_angle_alpha    72.59434365350275
_cell_angle_beta     72.57985065014691
_cell_angle_gamma    60.196618548522714

_space_group_name_H-M_alt    "P 1"
_space_group_IT_number       1

loop_
  _space_group_symop_operation_xyz
  'x, y, z'

loop_
  _atom_site_type_symbol
  _atom_site_label
  _atom_site_symmetry_multiplicity
  _atom_site_fract_x
  _atom_site_fract_y
  _atom_site_fract_z
  _atom_site_occupancy
  Ti  Ti1       1.0  0.8854623436927795  0.6811666488647461  0.7651599049568176  1.0000
  Ba  Ba1       1.0  0.38605278730392456  0.1815635710954666  0.26519420742988586  1.0000
  O   O1        1.0  0.9788200855255127  0.7741770148277283  0.4850783050060272  1.0000
  O   O2        1.0  0.7931985855102539  0.5889331698417664  0.044735863804817165  1.0000
