data_image223
_chemical_formula_structural       TiBa2TiOTiO6TiO
_chemical_formula_sum              "Ti4 Ba2 O8"
_cell_length_a       4.094821097149448
_cell_length_b       5.647754317569686
_cell_length_c       8.53378677368164
_cell_angle_alpha    90.18726580809978
_cell_angle_beta     92.45895947677883
_cell_angle_gamma    90.02050673221167

_space_group_name_H-M_alt    "P 1"
_space_group_IT_number       1

loop_
  _space_group_symop_operation_xyz
  'x, y, z'

loop_
  _atom_site_type_symbol
  _atom_site_label
  _atom_site_symmetry_multiplicity
  _atom_site_fract_x
  _atom_site_fract_y
  _atom_site_fract_z
  _atom_site_occupancy
  Ti  Ti1       1.0  0.23062904179096222  0.6056320667266846  0.8553558588027954  1.0000
  Ba  Ba1       1.0  0.6783201694488525  0.6059865355491638  0.5204928517341614  1.0000
  Ba  Ba2       1.0  0.6491663455963135  0.10570295155048369  0.18393275141716003  1.0000
  Ti  Ti2       1.0  0.11998631805181503  0.10591412335634232  0.8502886295318604  1.0000
  O   O1        1.0  0.17794857919216156  0.8557526469230652  0.35277095437049866  1.0000
  Ti  Ti3       1.0  0.15375259518623352  0.1068294271826744  0.5104938745498657  1.0000
  O   O2        1.0  0.19211718440055847  0.8569326996803283  0.6929314136505127  1.0000
  O   O3        1.0  0.16021490097045898  0.854082703590393  0.011031422764062881  1.0000
  O   O4        1.0  0.17719806730747223  0.355636864900589  0.3528137505054474  1.0000
  O   O5        1.0  0.70197993516922  0.10606724023818968  0.5122261047363281  1.0000
  O   O6        1.0  0.15934030711650848  0.35713183879852295  0.011244203895330429  1.0000
  O   O7        1.0  0.19346800446510315  0.3541410863399505  0.6932791471481323  1.0000
  Ti  Ti4       1.0  0.13029803335666656  0.6055169105529785  0.1929682493209839  1.0000
  O   O8        1.0  0.6756684184074402  0.6054512858390808  0.1919352263212204  1.0000
