data_image458
_chemical_formula_structural       TiOTiOTiBaO5
_chemical_formula_sum              "Ti3 O7 Ba1"
_cell_length_a       3.744636354964931
_cell_length_b       5.4831247779832095
_cell_length_c       8.555787086486816
_cell_angle_alpha    104.9585338070372
_cell_angle_beta     102.72950717878061
_cell_angle_gamma    90.09798824292146

_space_group_name_H-M_alt    "P 1"
_space_group_IT_number       1

loop_
  _space_group_symop_operation_xyz
  'x, y, z'

loop_
  _atom_site_type_symbol
  _atom_site_label
  _atom_site_symmetry_multiplicity
  _atom_site_fract_x
  _atom_site_fract_y
  _atom_site_fract_z
  _atom_site_occupancy
  Ti  Ti1       1.0  0.4402673840522766  0.7709415555000304  0.0036464929580688477  1.0000
  O   O1        1.0  0.14424963295459747  0.9852985143661499  0.4075053036212921  1.0000
  Ti  Ti2       1.0  0.7966783046722412  0.512223482131958  0.7162148356437683  1.0000
  O   O2        1.0  0.318773090839386  0.6019654273986816  0.7587584853172302  1.0000
  Ti  Ti3       1.0  0.6625152230262756  0.9075322151184081  0.4479409456253052  1.0000
  Ba  Ba1       1.0  0.057943686842918396  0.37613311409950256  0.23813073337078094  1.0000
  O   O3        1.0  0.4653016924858093  0.10256256908178331  0.051677852869033813  1.0000
  O   O4        1.0  0.6949046850204468  0.6173173189163208  0.5134155750274658  1.0000
  O   O5        1.0  0.9198901057243347  0.6565943956375122  0.9622136354446411  1.0000
  O   O6        1.0  0.5437737703323364  0.70524001121521  0.21009671688079834  1.0000
  O   O7        1.0  0.7609954476356506  0.1786627471446991  0.6456708312034607  1.0000
