data_image492
_chemical_formula_structural       Ba2TiO2TiO3
_chemical_formula_sum              "Ba2 Ti2 O5"
_cell_length_a       3.579710311503751
_cell_length_b       6.383656600451729
_cell_length_c       6.548718452453613
_cell_angle_alpha    108.03054689290865
_cell_angle_beta     90.01103326037799
_cell_angle_gamma    106.43739186818785

_space_group_name_H-M_alt    "P 1"
_space_group_IT_number       1

loop_
  _space_group_symop_operation_xyz
  'x, y, z'

loop_
  _atom_site_type_symbol
  _atom_site_label
  _atom_site_symmetry_multiplicity
  _atom_site_fract_x
  _atom_site_fract_y
  _atom_site_fract_z
  _atom_site_occupancy
  Ba  Ba1       1.0  0.5857712030410767  0.9466901421546936  0.7214537858963013  1.0000
  Ba  Ba2       1.0  0.2385448664426804  0.2546307742595673  0.2928166389465332  1.0000
  Ti  Ti1       1.0  0.860552966594696  0.49846965074539185  0.7853057384490967  1.0000
  O   O1        1.0  0.9121345281600952  0.6007968783378601  0.5070295929908752  1.0000
  O   O2        1.0  0.01996379718184471  0.8177571296691895  0.9642429947853088  1.0000
  Ti  Ti2       1.0  0.963361918926239  0.7040904164314271  0.22971643507480624  1.0000
  O   O3        1.0  0.5390640497207642  0.8545768857002258  0.3029570877552033  1.0000
  O   O4        1.0  0.8047627210617065  0.38464868068695074  0.05069290846586229  1.0000
  O   O5        1.0  0.2851262390613556  0.3469887971878052  0.7112106084823608  1.0000
