data_image359
_chemical_formula_structural       Ba2TiO3TiO
_chemical_formula_sum              "Ba2 Ti2 O4"
_cell_length_a       3.8144075791490653
_cell_length_b       3.7888269878140255
_cell_length_c       10.993610382080078
_cell_angle_alpha    89.88289891169643
_cell_angle_beta     90.01991933610245
_cell_angle_gamma    89.9859937867744

_space_group_name_H-M_alt    "P 1"
_space_group_IT_number       1

loop_
  _space_group_symop_operation_xyz
  'x, y, z'

loop_
  _atom_site_type_symbol
  _atom_site_label
  _atom_site_symmetry_multiplicity
  _atom_site_fract_x
  _atom_site_fract_y
  _atom_site_fract_z
  _atom_site_occupancy
  Ba  Ba1       1.0  0.8908067345619202  0.6034932732582091  0.3154589831829071  1.0000
  Ba  Ba2       1.0  0.39111101627349854  0.10464684665203093  0.7023378610610962  1.0000
  Ti  Ti1       1.0  0.8905245065689087  0.6043375730514525  0.9463803768157959  1.0000
  O   O1        1.0  0.8900909423828125  0.10386426001787184  0.012057024985551834  1.0000
  O   O2        1.0  0.3904028832912445  0.102677084505558  0.24656642973423004  1.0000
  O   O3        1.0  0.8907720446586609  0.6048380136489868  0.7716749906539917  1.0000
  Ti  Ti2       1.0  0.3908335864543915  0.10346125066280364  0.07173046469688416  1.0000
  O   O4        1.0  0.3908545672893524  0.603604793548584  0.006244778633117676  1.0000
