data_image220
_chemical_formula_structural       Ba4OBaO5TiOBaOTi
_chemical_formula_sum              "Ba6 O8 Ti2"
_cell_length_a       6.037254513453657
_cell_length_b       6.377108114110033
_cell_length_c       8.61552906036377
_cell_angle_alpha    89.8633509170429
_cell_angle_beta     89.90237860696341
_cell_angle_gamma    89.81585378618065

_space_group_name_H-M_alt    "P 1"
_space_group_IT_number       1

loop_
  _space_group_symop_operation_xyz
  'x, y, z'

loop_
  _atom_site_type_symbol
  _atom_site_label
  _atom_site_symmetry_multiplicity
  _atom_site_fract_x
  _atom_site_fract_y
  _atom_site_fract_z
  _atom_site_occupancy
  Ba  Ba1       1.0  0.5260140895843506  0.2948096990585327  0.42708200216293335  1.0000
  Ba  Ba2       1.0  0.527242124080658  0.7802057862281799  0.6682596206665039  1.0000
  Ba  Ba3       1.0  0.025947719812393192  0.8554447889328002  0.408643901348114  1.0000
  Ba  Ba4       1.0  0.025826130062341694  0.37128400802612305  0.1684408038854599  1.0000
  O   O1        1.0  0.5249824523925781  0.7168269753456116  0.36039093136787415  1.0000
  Ba  Ba5       1.0  0.5256046652793884  0.294586181640625  0.9092525243759155  1.0000
  O   O2        1.0  0.7852045297622682  0.10055794566869736  0.6682081818580627  1.0000
  O   O3        1.0  0.026532024145126346  0.4312919080257416  0.8607553243637085  1.0000
  O   O4        1.0  0.28513190150260925  0.04957488179206848  0.16838862001895905  1.0000
  O   O5        1.0  0.5255114436149597  0.7181881070137024  0.975150465965271  1.0000
  O   O6        1.0  0.7669539451599122  0.04983897507190704  0.1683836728334427  1.0000
  Ti  Ti1       1.0  0.0260273814201355  0.2983815371990204  0.6682652831077576  1.0000
  O   O7        1.0  0.2667706310749054  0.10021702200174333  0.6687832474708557  1.0000
  Ba  Ba6       1.0  0.02629993855953217  0.8564606308937074  0.9280106425285339  1.0000
  O   O8        1.0  0.026450272649526603  0.4329965412616729  0.4762912690639496  1.0000
  Ti  Ti2       1.0  0.5257508754730225  0.8511500358581544  0.16835381090641022  1.0000
