data_image400
_chemical_formula_structural       BaTiOTiO5
_chemical_formula_sum              "Ba1 Ti2 O6"
_cell_length_a       5.395836530948919
_cell_length_b       5.325146733659313
_cell_length_c       5.516231060028076
_cell_angle_alpha    89.8199792159594
_cell_angle_beta     90.28842091546773
_cell_angle_gamma    119.72350692335378

_space_group_name_H-M_alt    "P 1"
_space_group_IT_number       1

loop_
  _space_group_symop_operation_xyz
  'x, y, z'

loop_
  _atom_site_type_symbol
  _atom_site_label
  _atom_site_symmetry_multiplicity
  _atom_site_fract_x
  _atom_site_fract_y
  _atom_site_fract_z
  _atom_site_occupancy
  Ba  Ba1       1.0  0.611814022064209  0.12934675812721252  0.7054554224014282  1.0000
  Ti  Ti1       1.0  0.2602996230125427  0.45388489961624146  0.2049923986196518  1.0000
  O   O1        1.0  0.6128923892974854  0.7302400469779968  0.3774828016757965  1.0000
  Ti  Ti2       1.0  0.963564395904541  0.8040355443954469  0.20523105561733246  1.0000
  O   O2        1.0  0.017440715804696083  0.5289463400840759  0.4083988070487976  1.0000
  O   O3        1.0  0.20862169563770294  0.12443399429321289  0.40862220525741577  1.0000
  O   O4        1.0  0.20477676391601565  0.7273300886154176  0.0018807649612426756  1.0000
  O   O5        1.0  0.6109451055526733  0.5267678499221803  0.03232293203473091  1.0000
  O   O6        1.0  0.0154180880635977  0.13233892619609836  0.0025809037033468485  1.0000
