data_image254
_chemical_formula_structural       BaTiBaO2Ba3O3BaTiO
_chemical_formula_sum              "Ba6 Ti2 O6"
_cell_length_a       3.9487723857246286
_cell_length_b       9.799694146050202
_cell_length_c       10.615748405456543
_cell_angle_alpha    118.93431597186296
_cell_angle_beta     89.9820527672562
_cell_angle_gamma    90.00654582531541

_space_group_name_H-M_alt    "P 1"
_space_group_IT_number       1

loop_
  _space_group_symop_operation_xyz
  'x, y, z'

loop_
  _atom_site_type_symbol
  _atom_site_label
  _atom_site_symmetry_multiplicity
  _atom_site_fract_x
  _atom_site_fract_y
  _atom_site_fract_z
  _atom_site_occupancy
  Ba  Ba1       1.0  0.7724213600158691  0.32808810472488403  0.6647337675094604  1.0000
  Ti  Ti1       1.0  0.27226266264915466  0.1360010951757431  0.3317422866821289  1.0000
  Ba  Ba2       1.0  0.7723275423049927  0.8394185900688171  0.05381392687559132  1.0000
  O   O1        1.0  0.771932065486908  0.3137783408164978  0.07855392247438431  1.0000
  O   O2        1.0  0.7722337245941162  0.12994776666164398  0.3045288026332855  1.0000
  Ba  Ba3       1.0  0.7721183896064758  0.9195038080215454  0.43966639041900635  1.0000
  Ba  Ba4       1.0  0.2719023823738098  0.6229800581932067  0.5420646071434021  1.0000
  Ba  Ba5       1.0  0.27230381965637207  0.5426775217056274  0.1555372029542923  1.0000
  O   O3        1.0  0.27220502495765686  0.8683249950408936  0.23797199130058289  1.0000
  O   O4        1.0  0.27198097109794617  0.33455589413642883  0.29123422503471375  1.0000
  O   O5        1.0  0.7721678614616394  0.5940136909484862  0.35819554328918457  1.0000
  Ba  Ba6       1.0  0.2727595567703247  0.13299044966697693  0.9281304478645325  1.0000
  Ti  Ti2       1.0  0.7722280025482178  0.3273947834968567  0.2625623941421509  1.0000
  O   O6        1.0  0.2722484767436981  0.15032052993774414  0.5165804624557495  1.0000
