data_image262
_chemical_formula_structural       Ba2OBaOBaO3TiOTi2O3
_chemical_formula_sum              "Ba4 O9 Ti3"
_cell_length_a       5.729584466598922
_cell_length_b       5.736252972904473
_cell_length_c       9.199112892150879
_cell_angle_alpha    104.0059264441487
_cell_angle_beta     103.93036364170695
_cell_angle_gamma    91.61843681137128

_space_group_name_H-M_alt    "P 1"
_space_group_IT_number       1

loop_
  _space_group_symop_operation_xyz
  'x, y, z'

loop_
  _atom_site_type_symbol
  _atom_site_label
  _atom_site_symmetry_multiplicity
  _atom_site_fract_x
  _atom_site_fract_y
  _atom_site_fract_z
  _atom_site_occupancy
  Ba  Ba1       1.0  0.6238701343536377  0.6550038456916808  0.22876884043216705  1.0000
  Ba  Ba2       1.0  0.31766897439956665  0.3362358808517456  0.6973075270652771  1.0000
  O   O1        1.0  0.3115130364894867  0.8355156779289246  0.6844934225082397  1.0000
  Ba  Ba3       1.0  0.8143317699432373  0.8410897254943847  0.6980036497116089  1.0000
  O   O2        1.0  0.47460177540779114  0.9968979954719542  0.4628281593322754  1.0000
  Ba  Ba4       1.0  0.13261583447456357  0.14566068351268766  0.22724725306034088  1.0000
  O   O3        1.0  0.9718478918075562  0.4937459528446197  0.46526309847831726  1.0000
  O   O4        1.0  0.6308689713478088  0.15371708571910858  0.22222541272640228  1.0000
  O   O5        1.0  0.06464841216802597  0.2212138324975967  0.9195107221603394  1.0000
  Ti  Ti1       1.0  0.9901594519615173  0.5129007697105407  0.9881522059440613  1.0000
  O   O6        1.0  0.47465837001800537  0.4906350076198578  0.4621054530143738  1.0000
  Ti  Ti2       1.0  0.22893789410591125  0.7509595155715942  0.48240646719932556  1.0000
  Ti  Ti3       1.0  0.7129077911376953  0.2345471978187561  0.4324154555797577  1.0000
  O   O7        1.0  0.6980288028717041  0.5893821716308594  0.9185634851455688  1.0000
  O   O8        1.0  0.11507035791873932  0.6368142962455748  0.19343237578868866  1.0000
  O   O9        1.0  0.9678821563720703  0.9974147081375121  0.46153736114501953  1.0000
