data_image273
_chemical_formula_structural       Ba2TiBaO6
_chemical_formula_sum              "Ba3 Ti1 O6"
_cell_length_a       6.166578732462954
_cell_length_b       6.170956396407462
_cell_length_c       6.3919196128845215
_cell_angle_alpha    61.760441002137185
_cell_angle_beta     61.8020988689454
_cell_angle_gamma    60.4609167075079

_space_group_name_H-M_alt    "P 1"
_space_group_IT_number       1

loop_
  _space_group_symop_operation_xyz
  'x, y, z'

loop_
  _atom_site_type_symbol
  _atom_site_label
  _atom_site_symmetry_multiplicity
  _atom_site_fract_x
  _atom_site_fract_y
  _atom_site_fract_z
  _atom_site_occupancy
  Ba  Ba1       1.0  0.3246643841266632  0.37741202116012573  0.9782994389533998  1.0000
  Ba  Ba2       1.0  0.08303022384643555  0.1361067146062851  0.7000774145126343  1.0000
  Ti  Ti1       1.0  0.5837801098823547  0.6365393996238708  0.1994289755821228  1.0000
  Ba  Ba3       1.0  0.8425743579864502  0.8944422006607057  0.4214991927146912  1.0000
  O   O1        1.0  0.8659927845001221  0.4738679230213166  0.3481145501136779  1.0000
  O   O2        1.0  0.7902969717979431  0.8443551063537598  0.8919174671173097  1.0000
  O   O3        1.0  0.30071300268173207  0.7972925901412965  0.051844239234924316  1.0000
  O   O4        1.0  0.7460261583328247  0.35293030738830566  0.052608896046876914  1.0000
  O   O5        1.0  0.37547752261161804  0.4287712275981903  0.5077482461929321  1.0000
  O   O6        1.0  0.4213342070579529  0.9190393686294556  0.348012626171112  1.0000
