data_image390
_chemical_formula_structural       BaOTiO2
_chemical_formula_sum              "Ba1 O3 Ti1"
_cell_length_a       4.045928650935182
_cell_length_b       4.098169935596126
_cell_length_c       4.102991580963135
_cell_angle_alpha    89.57966584594682
_cell_angle_beta     89.69993180864887
_cell_angle_gamma    89.67546607678103

_space_group_name_H-M_alt    "P 1"
_space_group_IT_number       1

loop_
  _space_group_symop_operation_xyz
  'x, y, z'

loop_
  _atom_site_type_symbol
  _atom_site_label
  _atom_site_symmetry_multiplicity
  _atom_site_fract_x
  _atom_site_fract_y
  _atom_site_fract_z
  _atom_site_occupancy
  Ba  Ba1       1.0  0.28770530223846436  0.7574142217636108  0.6927711367607117  1.0000
  O   O1        1.0  0.3078860938549042  0.27821478247642517  0.21444977819919586  1.0000
  Ti  Ti1       1.0  0.7757536172866821  0.24067474901676178  0.17611224949359894  1.0000
  O   O2        1.0  0.8002637028694153  0.7881752252578735  0.21102352440357208  1.0000
  O   O3        1.0  0.7990726232528687  0.27413037419319153  0.7245087027549744  1.0000
