data_image70
_chemical_formula_structural       BaOBaO4TiBaOBaOTiO
_chemical_formula_sum              "Ba4 O8 Ti2"
_cell_length_a       6.176536000754184
_cell_length_b       6.179944802396528
_cell_length_c       8.17236042022705
_cell_angle_alpha    90.08600824627388
_cell_angle_beta     90.04404356579211
_cell_angle_gamma    120.04715742963728

_space_group_name_H-M_alt    "P 1"
_space_group_IT_number       1

loop_
  _space_group_symop_operation_xyz
  'x, y, z'

loop_
  _atom_site_type_symbol
  _atom_site_label
  _atom_site_symmetry_multiplicity
  _atom_site_fract_x
  _atom_site_fract_y
  _atom_site_fract_z
  _atom_site_occupancy
  Ba  Ba1       1.0  0.27958622574806213  0.6171098351478577  0.7953656315803528  1.0000
  O   O1        1.0  0.6130725145339966  0.28398168087005615  0.27517199516296387  1.0000
  Ba  Ba2       1.0  0.28015246987342834  0.6176478266716003  0.29506054520606995  1.0000
  O   O2        1.0  0.4542664885520935  0.9652777910232545  0.5755943059921265  1.0000
  O   O3        1.0  0.10535315424203873  0.268856942653656  0.01502281054854393  1.0000
  O   O4        1.0  0.45409101247787476  0.44385889172554016  0.5752401947975159  1.0000
  O   O5        1.0  0.9470964074134827  0.9507874846458436  0.31528976559638977  1.0000
  Ti  Ti1       1.0  0.6135857105255127  0.2840948700904846  0.4947815537452698  1.0000
  Ba  Ba3       1.0  0.612477719783783  0.28321602940559387  0.9861682653427124  1.0000
  O   O6        1.0  0.9318501949310303  0.4431561529636383  0.5753121376037598  1.0000
  Ba  Ba4       1.0  0.9467174410820007  0.950427234172821  0.6037499308586121  1.0000
  O   O7        1.0  0.10594485700130463  0.7908089756965637  0.01568242721259594  1.0000
  Ti  Ti2       1.0  0.9466024041175842  0.9505071640014647  0.09553772211074829  1.0000
  O   O8        1.0  0.6276148557662964  0.7905539274215698  0.015467656776309013  1.0000
