data_image108
_chemical_formula_structural       BaTiOTiO4BaO
_chemical_formula_sum              "Ba2 Ti2 O6"
_cell_length_a       5.7070931201814785
_cell_length_b       5.708374147150751
_cell_length_c       5.707679748535156
_cell_angle_alpha    60.059588832720564
_cell_angle_beta     60.057545695067816
_cell_angle_gamma    60.049036785223606

_space_group_name_H-M_alt    "P 1"
_space_group_IT_number       1

loop_
  _space_group_symop_operation_xyz
  'x, y, z'

loop_
  _atom_site_type_symbol
  _atom_site_label
  _atom_site_symmetry_multiplicity
  _atom_site_fract_x
  _atom_site_fract_y
  _atom_site_fract_z
  _atom_site_occupancy
  Ba  Ba1       1.0  0.8127917051315308  0.01963704079389572  0.8197227716445923  1.0000
  Ti  Ti1       1.0  0.06243458390235902  0.2697042226791382  0.06951531022787094  1.0000
  O   O1        1.0  0.31272515654563904  0.5197229385375977  0.8195489645004272  1.0000
  Ti  Ti2       1.0  0.5624890923500061  0.7695522308349609  0.5694258213043214  1.0000
  O   O2        1.0  0.8126077055931091  0.519665002822876  0.31978848576545726  1.0000
  O   O3        1.0  0.3125200569629669  0.019776366651058197  0.3195817470550537  1.0000
  O   O4        1.0  0.8125357031822205  0.019686713814735413  0.31967201828956604  1.0000
  O   O5        1.0  0.8125653862953186  0.5199956297874451  0.8194579482078552  1.0000
  Ba  Ba2       1.0  0.31258252263069153  0.5196206569671631  0.31960204243659973  1.0000
  O   O6        1.0  0.3127268850803375  0.019618364050984383  0.8197073936462402  1.0000
