data_image449
_chemical_formula_structural       BaOBa3OTi2O4
_chemical_formula_sum              "Ba4 O6 Ti2"
_cell_length_a       3.8968975543979485
_cell_length_b       7.489398863249859
_cell_length_c       11.088037490844727
_cell_angle_alpha    115.85458387725056
_cell_angle_beta     89.99997518372147
_cell_angle_gamma    105.14296914643589

_space_group_name_H-M_alt    "P 1"
_space_group_IT_number       1

loop_
  _space_group_symop_operation_xyz
  'x, y, z'

loop_
  _atom_site_type_symbol
  _atom_site_label
  _atom_site_symmetry_multiplicity
  _atom_site_fract_x
  _atom_site_fract_y
  _atom_site_fract_z
  _atom_site_occupancy
  Ba  Ba1       1.0  0.5961619019508362  0.691045045852661  0.3884277939796448  1.0000
  O   O1        1.0  0.3680397868156433  0.2343918979167938  0.31998160481452936  1.0000
  Ba  Ba2       1.0  0.0953746810555458  0.6912837028503418  0.8880271911621094  1.0000
  Ba  Ba3       1.0  0.8136959075927734  0.12646137177944183  0.7042161226272583  1.0000
  Ba  Ba4       1.0  0.37844350934028625  0.25571325421333313  0.07217478752136229  1.0000
  O   O2        1.0  0.7418007850646973  0.9829923510551452  0.08483166247606273  1.0000
  Ti  Ti1       1.0  0.34763970971107483  0.19606409966945648  0.4986253082752228  1.0000
  Ti  Ti2       1.0  0.8445369005203247  0.18664103746414185  0.2780594825744629  1.0000
  O   O3        1.0  0.9673202633857727  0.43032595515251154  0.2447950392961502  1.0000
  O   O4        1.0  0.824612021446228  0.1469939798116684  0.45604363083839417  1.0000
  O   O5        1.0  0.2243071943521499  0.9516254067420958  0.5330726504325867  1.0000
  O   O6        1.0  0.44964492321014404  0.3980306982994079  0.6899250149726868  1.0000
