data_image512
_chemical_formula_structural       BaOTiO3
_chemical_formula_sum              "Ba1 O4 Ti1"
_cell_length_a       4.141921103642474
_cell_length_b       4.1800460074515176
_cell_length_c       6.446230888366699
_cell_angle_alpha    72.51890335913438
_cell_angle_beta     72.42977723455552
_cell_angle_gamma    60.32443000318818

_space_group_name_H-M_alt    "P 1"
_space_group_IT_number       1

loop_
  _space_group_symop_operation_xyz
  'x, y, z'

loop_
  _atom_site_type_symbol
  _atom_site_label
  _atom_site_symmetry_multiplicity
  _atom_site_fract_x
  _atom_site_fract_y
  _atom_site_fract_z
  _atom_site_occupancy
  Ba  Ba1       1.0  0.669872522354126  0.23269009590148926  0.4001581072807312  1.0000
  O   O1        1.0  0.6809181571006776  0.24485634267330167  0.9020424485206604  1.0000
  Ti  Ti1       1.0  0.21991725265979767  0.7804243564605713  0.9009647369384766  1.0000
  O   O2        1.0  0.48281165957450867  0.042683325707912445  0.8950402736663818  1.0000
  O   O3        1.0  0.2622644901275634  0.8251978158950806  0.605015218257904  1.0000
  O   O4        1.0  0.06687080860137938  0.6329267024993896  0.1939593404531479  1.0000
