data_image0
_chemical_formula_structural       TiBa2O5TiO
_chemical_formula_sum              "Ti2 Ba2 O6"
_cell_length_a       4.0570414613677785
_cell_length_b       4.062378082345999
_cell_length_c       8.147453308105469
_cell_angle_alpha    89.9248909152573
_cell_angle_beta     89.95508034610367
_cell_angle_gamma    89.87022891258573

_space_group_name_H-M_alt    "P 1"
_space_group_IT_number       1

loop_
  _space_group_symop_operation_xyz
  'x, y, z'

loop_
  _atom_site_type_symbol
  _atom_site_label
  _atom_site_symmetry_multiplicity
  _atom_site_fract_x
  _atom_site_fract_y
  _atom_site_fract_z
  _atom_site_occupancy
  Ti  Ti1       1.0  0.2373370148976611  0.49023968309812765  0.8072942697708224  1.0000
  Ba  Ba1       1.0  0.7375955630352748  0.990622722042284  0.05706564641466442  1.0000
  Ba  Ba2       1.0  0.7376247189392378  0.9905554688896102  0.5573137791639043  1.0000
  O   O1        1.0  0.2376109741580033  0.49070461794086306  0.5571514809531863  1.0000
  O   O2        1.0  0.23769831491168159  0.49076407843205616  0.05699100520949454  1.0000
  O   O3        1.0  0.7378012138681412  0.4905811437689219  0.8071547525860293  1.0000
  O   O4        1.0  0.7378787200576318  0.4907499592757868  0.30713732492234436  1.0000
  O   O5        1.0  0.23781085880594893  0.9909241214148243  0.30710742613762654  1.0000
  Ti  Ti2       1.0  0.2374714635032045  0.49039199121606847  0.30729787869980707  1.0000
  O   O6        1.0  0.2376487877220932  0.990865347454824  0.8071822337481528  1.0000
