data_image0
_chemical_formula_structural       Ba2O2BaO2Ti2O3
_chemical_formula_sum              "Ba3 O7 Ti2"
_cell_length_a       4.062635743398936
_cell_length_b       4.064041766902722
_cell_length_c       11.082275390625
_cell_angle_alpha    100.49929347759448
_cell_angle_beta     100.48761500008473
_cell_angle_gamma    89.87158125890151

_space_group_name_H-M_alt    "P 1"
_space_group_IT_number       1

loop_
  _space_group_symop_operation_xyz
  'x, y, z'

loop_
  _atom_site_type_symbol
  _atom_site_label
  _atom_site_symmetry_multiplicity
  _atom_site_fract_x
  _atom_site_fract_y
  _atom_site_fract_z
  _atom_site_occupancy
  Ba  Ba1       1.0  0.6434563160523384  0.5146718567634436  0.9322543170377824  1.0000
  Ba  Ba2       1.0  0.4552394403235833  0.32661155626143556  0.5660162098570484  1.0000
  O   O1        1.0  0.13446610553685878  0.0057299161766167315  0.9383641571744583  1.0000
  O   O2        1.0  0.8651438422132739  0.2455182934469877  0.3771128388407937  1.0000
  Ba  Ba3       1.0  0.2671083709232493  0.13837922833239225  0.19984735027217895  1.0000
  O   O3        1.0  0.5361100830705237  0.9159470813036147  0.7549684887914667  1.0000
  O   O4        1.0  0.7756284559550821  0.6468800664385557  0.19377691530133317  1.0000
  Ti  Ti1       1.0  0.06881555167254583  0.9402133436031693  0.7558109715581616  1.0000
  Ti  Ti2       1.0  0.8416763521294495  0.7128499412136607  0.3762852961783918  1.0000
  O   O5        1.0  0.044949716429757626  0.40713066734872894  0.7549786212363154  1.0000
  O   O6        1.0  0.9549123351541432  0.8262924464564598  0.5660019639241887  1.0000
  O   O7        1.0  0.37392260817648193  0.7367329614729873  0.37712780021127523  1.0000
