data_image0
_chemical_formula_structural       Ba2TiOBaO5BaTi2O5
_chemical_formula_sum              "Ba4 Ti3 O11"
_cell_length_a       3.9475961725118767
_cell_length_b       3.9471591460973108
_cell_length_c       18.01675796508789
_cell_angle_alpha    96.28599663696687
_cell_angle_beta     96.27467206879562
_cell_angle_gamma    90.02407206672271

_space_group_name_H-M_alt    "P 1"
_space_group_IT_number       1

loop_
  _space_group_symop_operation_xyz
  'x, y, z'

loop_
  _atom_site_type_symbol
  _atom_site_label
  _atom_site_symmetry_multiplicity
  _atom_site_fract_x
  _atom_site_fract_y
  _atom_site_fract_z
  _atom_site_occupancy
  Ba  Ba1       1.0  0.3511934104247509  0.6165124938616088  0.033161843223460184  1.0000
  Ba  Ba2       1.0  0.6461285938006178  0.9098215429619212  0.6219277161961243  1.0000
  Ti  Ti1       1.0  0.7848931918250267  0.049587456101562344  0.9002005811928558  1.0000
  O   O1        1.0  0.4712774240982955  0.23470210355423493  0.27102582578165973  1.0000
  Ba  Ba3       1.0  0.22856645573035367  0.49300740438243873  0.787413684661033  1.0000
  O   O2        1.0  0.8366812089307488  0.10177216855529395  0.004387207001614846  1.0000
  O   O3        1.0  0.28254273316873457  0.04719227521587526  0.8957643896555827  1.0000
  O   O4        1.0  0.03613182591801967  0.29955696999836506  0.4012658801372088  1.0000
  O   O5        1.0  0.9711650127054472  0.7346370732767571  0.2710027811761923  1.0000
  O   O6        1.0  0.9115395124444451  0.17435615547435118  0.15047931986776447  1.0000
  Ba  Ba4       1.0  0.527598880252001  0.791032144146324  0.3840993609982561  1.0000
  Ti  Ti2       1.0  0.9589399488657107  0.22223792375942092  0.24615727010626925  1.0000
  Ti  Ti3       1.0  0.08997301096982632  0.3535002036553939  0.5092710288064379  1.0000
  O   O7        1.0  0.5905597566001901  0.35403465052942323  0.5104902666568287  1.0000
  O   O8        1.0  0.1468316841827588  0.4105026729607462  0.6233060008132633  1.0000
  O   O9        1.0  0.7237748862742185  0.988304964269001  0.7779141208340398  1.0000
  O   O10       1.0  0.7825507104859443  0.5472855250146641  0.8957530194824542  1.0000
  O   O11       1.0  0.09052997445654035  0.854084860159217  0.510488717313802  1.0000
