data_image0
_chemical_formula_structural       TiBaOTiOBaO2
_chemical_formula_sum              "Ti2 Ba2 O4"
_cell_length_a       3.8150060548095004
_cell_length_b       5.944930382560626
_cell_length_c       6.065220355987549
_cell_angle_alpha    90.23808924086383
_cell_angle_beta     90.03598394130546
_cell_angle_gamma    89.9997292968972

_space_group_name_H-M_alt    "P 1"
_space_group_IT_number       1

loop_
  _space_group_symop_operation_xyz
  'x, y, z'

loop_
  _atom_site_type_symbol
  _atom_site_label
  _atom_site_symmetry_multiplicity
  _atom_site_fract_x
  _atom_site_fract_y
  _atom_site_fract_z
  _atom_site_occupancy
  Ti  Ti1       1.0  0.37707070974073764  0.7260013775216584  0.24453083074626641  1.0000
  Ba  Ba1       1.0  0.8772982975878467  0.7272928796341175  0.7157504473461185  1.0000
  O   O1        1.0  0.87732869275564  0.22768423956265169  0.711423227124493  1.0000
  Ti  Ti2       1.0  0.377254723134038  0.2274308226506995  0.6605901990572233  1.0000
  O   O2        1.0  0.37716214118293023  0.9766967289118981  0.45259913040227595  1.0000
  Ba  Ba2       1.0  0.8770193843053099  0.22610124038659912  0.18940652831377672  1.0000
  O   O3        1.0  0.8769966835062974  0.7257194650840245  0.19373080008754245  1.0000
  O   O4        1.0  0.37716194803711656  0.4767254464581243  0.4525895432448039  1.0000
