data_image0
_chemical_formula_structural       BaTiOBaO2TiO
_chemical_formula_sum              "Ba2 Ti2 O4"
_cell_length_a       4.142003387143285
_cell_length_b       5.844567764807218
_cell_length_c       6.290912628173828
_cell_angle_alpha    117.9591569372093
_cell_angle_beta     109.14460624683835
_cell_angle_gamma    89.96308458085001

_space_group_name_H-M_alt    "P 1"
_space_group_IT_number       1

loop_
  _space_group_symop_operation_xyz
  'x, y, z'

loop_
  _atom_site_type_symbol
  _atom_site_label
  _atom_site_symmetry_multiplicity
  _atom_site_fract_x
  _atom_site_fract_y
  _atom_site_fract_z
  _atom_site_occupancy
  Ba  Ba1       1.0  0.8670727868303189  0.35304745698285006  0.495272943491275  1.0000
  Ti  Ti1       1.0  0.6200788748447738  0.6074255113470182  0.0023223622986470183  1.0000
  O   O1        1.0  0.4732333290049812  0.20979097532950655  0.7078972857197469  1.0000
  Ba  Ba2       1.0  0.07979423383158235  0.06708325063369953  0.9212666099112364  1.0000
  O   O2        1.0  0.4735001978823703  0.7100308002923623  0.708389369770172  1.0000
  O   O3        1.0  0.8193595083864732  0.8042523478165823  0.39940511291965974  1.0000
  Ti  Ti2       1.0  0.32682440514704436  0.8125260093554888  0.41430165088598225  1.0000
  O   O4        1.0  0.1275166276894086  0.6151828822290167  0.017172220614391668  1.0000
