data_image0
_chemical_formula_structural       OBaO2Ti2O
_chemical_formula_sum              "O4 Ba1 Ti2"
_cell_length_a       3.1539825287573344
_cell_length_b       5.064540516856253
_cell_length_c       7.091856479644775
_cell_angle_alpha    113.83409758659029
_cell_angle_beta     102.5380850305015
_cell_angle_gamma    90.07487492038507

_space_group_name_H-M_alt    "P 1"
_space_group_IT_number       1

loop_
  _space_group_symop_operation_xyz
  'x, y, z'

loop_
  _atom_site_type_symbol
  _atom_site_label
  _atom_site_symmetry_multiplicity
  _atom_site_fract_x
  _atom_site_fract_y
  _atom_site_fract_z
  _atom_site_occupancy
  O   O1        1.0  0.19853125151637913  0.2763517573613509  0.5790518876656485  1.0000
  Ba  Ba1       1.0  0.8656107612992484  0.5842008888339968  0.912710173194411  1.0000
  O   O2        1.0  0.7055778602990496  0.7663452370598178  0.5947574318393684  1.0000
  O   O3        1.0  0.5335009726978647  0.894236554996396  0.2463467221657231  1.0000
  Ti  Ti1       1.0  0.1293451637074157  0.8408674461356531  0.4387211900901093  1.0000
  Ti  Ti2       1.0  0.6030635768006212  0.3298969800566728  0.38683057848182634  1.0000
  O   O4        1.0  0.026899232288456594  0.4044453949783828  0.2309448786246279  1.0000
