data_image0
_chemical_formula_structural       OBaTiO
_chemical_formula_sum              "O2 Ba1 Ti1"
_cell_length_a       3.3103246405234037
_cell_length_b       3.316406846266961
_cell_length_c       6.320096015930175
_cell_angle_alpha    74.83223458651113
_cell_angle_beta     74.84501376192293
_cell_angle_gamma    60.03605009334206

_space_group_name_H-M_alt    "P 1"
_space_group_IT_number       1

loop_
  _space_group_symop_operation_xyz
  'x, y, z'

loop_
  _atom_site_type_symbol
  _atom_site_label
  _atom_site_symmetry_multiplicity
  _atom_site_fract_x
  _atom_site_fract_y
  _atom_site_fract_z
  _atom_site_occupancy
  O   O1        1.0  0.32860252185019184  0.6052746915554563  0.46607222931481584  1.0000
  Ba  Ba1       1.0  0.5503609377591899  0.8269027217061617  0.8009839340403145  1.0000
  Ti  Ti1       1.0  0.050256020011970166  0.3270214462519186  0.3010048334947276  1.0000
  O   O2        1.0  0.7720234088259256  0.04868179592877612  0.1359155621936204  1.0000
