data_image0
_chemical_formula_structural       OBaOTiO2BaO4Ti
_chemical_formula_sum              "O8 Ba2 Ti2"
_cell_length_a       3.9862592456563997
_cell_length_b       6.240120967948292
_cell_length_c       7.343928337097167
_cell_angle_alpha    89.738624813387
_cell_angle_beta     105.2502974830362
_cell_angle_gamma    89.97958024110362

_space_group_name_H-M_alt    "P 1"
_space_group_IT_number       1

loop_
  _space_group_symop_operation_xyz
  'x, y, z'

loop_
  _atom_site_type_symbol
  _atom_site_label
  _atom_site_symmetry_multiplicity
  _atom_site_fract_x
  _atom_site_fract_y
  _atom_site_fract_z
  _atom_site_occupancy
  O   O1        1.0  0.31572618101295863  0.8673238334446371  0.3657664066462272  1.0000
  Ba  Ba1       1.0  0.39132954503784834  0.3738162789255561  0.5259717078542866  1.0000
  O   O2        1.0  0.5758234872778712  0.16066488162961837  0.8694787063143838  1.0000
  Ti  Ti1       1.0  0.6761535745218598  0.37078363588345864  0.04552920728211506  1.0000
  O   O3        1.0  0.920261979466694  0.0913109130632738  0.5819291812093275  1.0000
  O   O4        1.0  0.7282687686592578  0.664162807823813  0.18203356513931468  1.0000
  Ba  Ba2       1.0  0.10031659188199464  0.8739335284161114  0.9178632053335639  1.0000
  O   O5        1.0  0.7633586296791675  0.1641006414548966  0.2619905820617857  1.0000
  O   O6        1.0  0.5709803832051471  0.5930597845064833  0.8606354293566054  1.0000
  O   O7        1.0  0.9161207628789201  0.6591443325910396  0.5752020029862203  1.0000
  O   O8        1.0  0.1756128846171895  0.369081056616644  0.07729993117246055  1.0000
  Ti  Ti2       1.0  0.8151461671175589  0.8699017601962371  0.39784816303464426  1.0000
