data_image0
_chemical_formula_structural       BaO2BaOBaTiO4
_chemical_formula_sum              "Ba3 O7 Ti1"
_cell_length_a       3.8888035331520237
_cell_length_b       3.8863621513616553
_cell_length_c       11.994288444519043
_cell_angle_alpha    90.04627703203215
_cell_angle_beta     90.03597027938878
_cell_angle_gamma    90.05290231852031

_space_group_name_H-M_alt    "P 1"
_space_group_IT_number       1

loop_
  _space_group_symop_operation_xyz
  'x, y, z'

loop_
  _atom_site_type_symbol
  _atom_site_label
  _atom_site_symmetry_multiplicity
  _atom_site_fract_x
  _atom_site_fract_y
  _atom_site_fract_z
  _atom_site_occupancy
  Ba  Ba1       1.0  0.5691056122158166  0.6246817535143727  0.9007058195912975  1.0000
  O   O1        1.0  0.0702067455868762  0.6269908983650506  0.07883249313802819  1.0000
  O   O2        1.0  0.5684073310128404  0.6222725468711027  0.4624187526711165  1.0000
  Ba  Ba2       1.0  0.0759174323878013  0.13361503488150328  0.48945716234959735  1.0000
  O   O3        1.0  0.0713334186383738  0.1272594270281355  0.253446116212977  1.0000
  Ba  Ba3       1.0  0.5716118106746213  0.6275787194972033  0.2437042816394273  1.0000
  Ti  Ti1       1.0  0.07126053483696997  0.1266736283855024  0.0758465269243153  1.0000
  O   O4        1.0  0.07334136008771183  0.12764487770068741  0.9158881941328293  1.0000
  O   O5        1.0  0.5714227695026257  0.12625879229126583  0.07873029944569404  1.0000
  O   O6        1.0  0.7000021188219686  0.9328447068672702  0.6842612437046339  1.0000
  O   O7        1.0  0.9454190324037145  0.7008215624468501  0.6850122344000013  1.0000
