data_image0
_chemical_formula_structural       BaO3BaTi2O4BaTi2OBaO2
_chemical_formula_sum              "Ba4 O10 Ti4"
_cell_length_a       4.046646174614263
_cell_length_b       4.045115976549849
_cell_length_c       16.719871520996094
_cell_angle_alpha    89.96006638730775
_cell_angle_beta     89.97058487739119
_cell_angle_gamma    89.89666173753572

_space_group_name_H-M_alt    "P 1"
_space_group_IT_number       1

loop_
  _space_group_symop_operation_xyz
  'x, y, z'

loop_
  _atom_site_type_symbol
  _atom_site_label
  _atom_site_symmetry_multiplicity
  _atom_site_fract_x
  _atom_site_fract_y
  _atom_site_fract_z
  _atom_site_occupancy
  Ba  Ba1       1.0  0.5820213443863634  0.5658806884892146  0.9811123560720373  1.0000
  O   O1        1.0  0.08849990245560044  0.5729029720450711  0.6015645611005948  1.0000
  O   O2        1.0  0.0859845349165493  0.5699275234242048  0.10256653816605175  1.0000
  O   O3        1.0  0.08613294158705878  0.06991355217777986  0.23064765314649424  1.0000
  Ba  Ba2       1.0  0.5860564013381625  0.5698454409314034  0.7312687020320606  1.0000
  Ti  Ti1       1.0  0.06963700394786204  0.05387816439959299  0.8610750658830298  1.0000
  Ti  Ti2       1.0  0.0855737942109454  0.06953140789140894  0.10378649241630326  1.0000
  O   O4        1.0  0.08984212256557722  0.07370859182793918  0.7239523294838036  1.0000
  O   O5        1.0  0.08755334751857918  0.07136533386325436  0.9732994999768798  1.0000
  O   O6        1.0  0.6028157898411971  0.07878191924290366  0.8516102210649523  1.0000
  O   O7        1.0  0.08779216147268878  0.0716666264028735  0.4597912840862828  1.0000
  Ba  Ba3       1.0  0.5877563379075322  0.5716722516416022  0.4879703388111957  1.0000
  Ti  Ti3       1.0  0.08695366349732761  0.07070528857043315  0.34833156455533426  1.0000
  Ti  Ti4       1.0  0.08712321335215219  0.07122411352690172  0.6127653468008551  1.0000
  O   O8        1.0  0.0952877429146893  0.5861789625158985  0.8516079381851377  1.0000
  Ba  Ba4       1.0  0.5861528099108466  0.5699779296318288  0.21723203139214428  1.0000
  O   O9        1.0  0.5891994366081712  0.07233678532165859  0.601588460036099  1.0000
  O   O10       1.0  0.5861091740212333  0.06989454573195046  0.10256628115408105  1.0000
