data_image0
_chemical_formula_structural       TiBaOBa2O3
_chemical_formula_sum              "Ti1 Ba3 O4"
_cell_length_a       5.522318377653058
_cell_length_b       5.530331891272495
_cell_length_c       6.663229942321777
_cell_angle_alpha    113.83913593753063
_cell_angle_beta     113.66735699296494
_cell_angle_gamma    90.3730480420098

_space_group_name_H-M_alt    "P 1"
_space_group_IT_number       1

loop_
  _space_group_symop_operation_xyz
  'x, y, z'

loop_
  _atom_site_type_symbol
  _atom_site_label
  _atom_site_symmetry_multiplicity
  _atom_site_fract_x
  _atom_site_fract_y
  _atom_site_fract_z
  _atom_site_occupancy
  Ti  Ti1       1.0  0.2661011074485641  0.3911827326500194  0.018057769974936615  1.0000
  Ba  Ba1       1.0  0.5257900950845953  0.1569064277747069  0.4843995711556412  1.0000
  O   O1        1.0  0.28846824601465504  0.04398609991635711  0.9775269627413995  1.0000
  Ba  Ba2       1.0  0.0320712106712314  0.6507320594733714  0.48429667581424607  1.0000
  Ba  Ba3       1.0  0.7525490099461734  0.8773369908884705  0.9562645793380244  1.0000
  O   O2        1.0  0.918704807171795  0.41321431398145775  0.978174693048784  1.0000
  O   O3        1.0  0.327268351243229  0.452822753112191  0.7886426958877666  1.0000
  O   O4        1.0  0.48487547106542866  0.6101234375097694  0.3626421795236253  1.0000
