data_image0
_chemical_formula_structural       OBaTiO
_chemical_formula_sum              "O2 Ba1 Ti1"
_cell_length_a       3.2765658720479682
_cell_length_b       3.2768136480431544
_cell_length_c       6.518644332885743
_cell_angle_alpha    75.3689574537102
_cell_angle_beta     75.38964534063498
_cell_angle_gamma    60.01007468574102

_space_group_name_H-M_alt    "P 1"
_space_group_IT_number       1

loop_
  _space_group_symop_operation_xyz
  'x, y, z'

loop_
  _atom_site_type_symbol
  _atom_site_label
  _atom_site_symmetry_multiplicity
  _atom_site_fract_x
  _atom_site_fract_y
  _atom_site_fract_z
  _atom_site_occupancy
  O   O1        1.0  0.8968476651001701  0.43705713694424414  0.19304881490854822  1.0000
  Ba  Ba1       1.0  0.678878791065803  0.21913821823768942  0.849196436226459  1.0000
  Ti  Ti1       1.0  0.5080294268496814  0.048036193288594764  0.3591786044310798  1.0000
  O   O2        1.0  0.12099610189952328  0.6609770067649348  0.5207180056133148  1.0000
