data_image0
_chemical_formula_structural       BaTiOTiBaO3
_chemical_formula_sum              "Ba2 Ti2 O4"
_cell_length_a       5.682493600076573
_cell_length_b       5.694091681656911
_cell_length_c       5.688861846923828
_cell_angle_alpha    96.37226875868747
_cell_angle_beta     116.38698191476956
_cell_angle_gamma    116.52589442823962

_space_group_name_H-M_alt    "P 1"
_space_group_IT_number       1

loop_
  _space_group_symop_operation_xyz
  'x, y, z'

loop_
  _atom_site_type_symbol
  _atom_site_label
  _atom_site_symmetry_multiplicity
  _atom_site_fract_x
  _atom_site_fract_y
  _atom_site_fract_z
  _atom_site_occupancy
  Ba  Ba1       1.0  0.7717539894194448  0.00849253634678952  0.9906479579241716  1.0000
  Ti  Ti1       1.0  0.7717544712918287  0.5080902291132859  0.4908180699499102  1.0000
  O   O1        1.0  0.6531909702678579  0.38277841811458024  0.7467712937656631  1.0000
  Ti  Ti2       1.0  0.27138256570671787  0.25799314956148617  0.7401426473525881  1.0000
  Ba  Ba2       1.0  0.27173044503805244  0.7584031532667231  0.2408491909204322  1.0000
  O   O2        1.0  0.3907031048096193  0.25262777096388644  0.1149564223556616  1.0000
  O   O3        1.0  0.8901423794217285  0.8821941485686585  0.4833700441609268  1.0000
  O   O4        1.0  0.15224285210028066  0.5131552758309825  0.6148392453504532  1.0000
