data_image0
_chemical_formula_structural       BaO2BaTiO3Ti
_chemical_formula_sum              "Ba2 O5 Ti2"
_cell_length_a       3.9579126329236645
_cell_length_b       5.836566086923972
_cell_length_c       5.838968753814696
_cell_angle_alpha    92.1132016693976
_cell_angle_beta     89.96679412628151
_cell_angle_gamma    89.95560627452402

_space_group_name_H-M_alt    "P 1"
_space_group_IT_number       1

loop_
  _space_group_symop_operation_xyz
  'x, y, z'

loop_
  _atom_site_type_symbol
  _atom_site_label
  _atom_site_symmetry_multiplicity
  _atom_site_fract_x
  _atom_site_fract_y
  _atom_site_fract_z
  _atom_site_occupancy
  Ba  Ba1       1.0  0.15712973198280708  0.15699744032080526  0.9414679936760055  1.0000
  O   O1        1.0  0.6569867106405657  0.405951356966942  0.6905436084464669  1.0000
  O   O2        1.0  0.1569627933286443  0.6671733537351203  0.9293429367844929  1.0000
  Ba  Ba2       1.0  0.15683585434261246  0.6550559013242732  0.43958375633585284  1.0000
  Ti  Ti1       1.0  0.6569627299683687  0.6385559707741145  0.9579005556070566  1.0000
  O   O3        1.0  0.15698817608729995  0.14479598701745705  0.45167207004378157  1.0000
  O   O4        1.0  0.6569857986073508  0.40602571656732184  0.19052872444305324  1.0000
  O   O5        1.0  0.6569964964964811  0.9060772034420136  0.19045400566774184  1.0000
  Ti  Ti2       1.0  0.6569756411027098  0.17344346169449137  0.42296066533477483  1.0000
