data_image0
_chemical_formula_structural       BaO2TiO
_chemical_formula_sum              "Ba1 O3 Ti1"
_cell_length_a       3.9785694162819825
_cell_length_b       3.9823100023766194
_cell_length_c       4.377280235290527
_cell_angle_alpha    89.66367032015174
_cell_angle_beta     89.71350338367134
_cell_angle_gamma    89.88000974413612

_space_group_name_H-M_alt    "P 1"
_space_group_IT_number       1

loop_
  _space_group_symop_operation_xyz
  'x, y, z'

loop_
  _atom_site_type_symbol
  _atom_site_label
  _atom_site_symmetry_multiplicity
  _atom_site_fract_x
  _atom_site_fract_y
  _atom_site_fract_z
  _atom_site_occupancy
  Ba  Ba1       1.0  0.8903914838051693  0.5328291289874709  0.6519614722922837  1.0000
  O   O1        1.0  0.379574742474539  0.5209687337884841  0.11165481926699498  1.0000
  O   O2        1.0  0.3864616454039012  0.028927779910301682  0.5821626793642998  1.0000
  Ti  Ti1       1.0  0.39910104856412765  0.041466933689238955  0.16881984493965124  1.0000
  O   O3        1.0  0.8776189925928066  0.023055225488996973  0.11121236862098068  1.0000
