data_image0
_chemical_formula_structural       O2BaTiO2
_chemical_formula_sum              "O4 Ba1 Ti1"
_cell_length_a       3.908613386622059
_cell_length_b       4.338487114510879
_cell_length_c       5.121790409088135
_cell_angle_alpha    95.53134251338119
_cell_angle_beta     90.03325869553134
_cell_angle_gamma    89.89111562385906

_space_group_name_H-M_alt    "P 1"
_space_group_IT_number       1

loop_
  _space_group_symop_operation_xyz
  'x, y, z'

loop_
  _atom_site_type_symbol
  _atom_site_label
  _atom_site_symmetry_multiplicity
  _atom_site_fract_x
  _atom_site_fract_y
  _atom_site_fract_z
  _atom_site_occupancy
  O   O1        1.0  0.08803313822018823  0.7252917825599019  0.04140446502292856  1.0000
  O   O2        1.0  0.09038559189529774  0.9448670838346044  0.8410136811400707  1.0000
  Ba  Ba1       1.0  0.589003658289244  0.37838070986635  0.8258643641849192  1.0000
  Ti  Ti1       1.0  0.0898285593055597  0.8708582581266806  0.42140956813589886  1.0000
  O   O3        1.0  0.08894381645371927  0.2781655515741919  0.43798202929097113  1.0000
  O   O4        1.0  0.5890748686005787  0.8009960058897355  0.4552332898515563  1.0000
