data_image0
_chemical_formula_structural       BaTiBaO6Ba
_chemical_formula_sum              "Ba3 Ti1 O6"
_cell_length_a       6.150492270513372
_cell_length_b       6.1748632857903285
_cell_length_c       6.281006813049316
_cell_angle_alpha    119.36874398765339
_cell_angle_beta     119.39990316123216
_cell_angle_gamma    90.10630838254586

_space_group_name_H-M_alt    "P 1"
_space_group_IT_number       1

loop_
  _space_group_symop_operation_xyz
  'x, y, z'

loop_
  _atom_site_type_symbol
  _atom_site_label
  _atom_site_symmetry_multiplicity
  _atom_site_fract_x
  _atom_site_fract_y
  _atom_site_fract_z
  _atom_site_occupancy
  Ba  Ba1       1.0  0.799280349330181  0.8605812665207028  0.6732318287875391  1.0000
  Ti  Ti1       1.0  0.5490599083250634  0.11031072401843722  0.17285012329578633  1.0000
  Ba  Ba2       1.0  0.29861824574894436  0.36028796860419415  0.6725669007229137  1.0000
  O   O1        1.0  0.687896554010337  0.4001304052327145  0.17403194254096177  1.0000
  O   O2        1.0  0.839095858569026  0.9717214079779642  0.1729551761091696  1.0000
  O   O3        1.0  0.41006847579499756  0.8207326017787032  0.17184835865943832  1.0000
  O   O4        1.0  0.3283980968207971  0.8901593147228986  0.7312797409086145  1.0000
  O   O5        1.0  0.7704831507946037  0.33009452068690726  0.614569956456329  1.0000
  O   O6        1.0  0.2591908897731926  0.24879450165134193  0.17280297263011643  1.0000
  Ba  Ba3       1.0  0.04906784696310752  0.6103395039229383  0.17293244422842818  1.0000
