data_image0
_chemical_formula_structural       Ba2TiBaO2BaTiO5
_chemical_formula_sum              "Ba4 Ti2 O7"
_cell_length_a       5.91882602743359
_cell_length_b       6.411092707012289
_cell_length_c       8.349905014038086
_cell_angle_alpha    76.73037899776362
_cell_angle_beta     84.72741030375308
_cell_angle_gamma    66.02370261548255

_space_group_name_H-M_alt    "P 1"
_space_group_IT_number       1

loop_
  _space_group_symop_operation_xyz
  'x, y, z'

loop_
  _atom_site_type_symbol
  _atom_site_label
  _atom_site_symmetry_multiplicity
  _atom_site_fract_x
  _atom_site_fract_y
  _atom_site_fract_z
  _atom_site_occupancy
  Ba  Ba1       1.0  0.2972378229730383  0.18335874412125328  0.05413789330011968  1.0000
  Ba  Ba2       1.0  0.9466529058601956  0.7893678595988654  0.33640673729189907  1.0000
  Ti  Ti1       1.0  0.6143069437718045  0.47529570046811026  0.16259035981132378  1.0000
  Ba  Ba3       1.0  0.8299393819674593  0.7878503186776956  0.8157380200427627  1.0000
  O   O1        1.0  0.2204436159092615  0.7338153078574127  0.6187797233062201  1.0000
  O   O2        1.0  0.9069082860792043  0.2373875340136491  0.25127447719226853  1.0000
  Ba  Ba4       1.0  0.1806490816317248  0.18171712225627784  0.533479883511649  1.0000
  Ti  Ti2       1.0  0.513006157122098  0.4958197552689013  0.7074059907435983  1.0000
  O   O3        1.0  0.34815379033835525  0.4254461452595332  0.2733816015335774  1.0000
  O   O4        1.0  0.7792566755307315  0.5455299362661044  0.5966388192256042  1.0000
  O   O5        1.0  0.4962678134994482  0.2068694458779  0.7275404258776579  1.0000
  O   O6        1.0  0.5635918286978898  0.4855594453294387  0.9350002542311802  1.0000
  O   O7        1.0  0.6309386709275208  0.7643254951468613  0.14236171784784032  1.0000
