data_image0
_chemical_formula_structural       BaTiBa2O3TiO4
_chemical_formula_sum              "Ba3 Ti2 O7"
_cell_length_a       3.7217159678333833
_cell_length_b       5.65360220879298
_cell_length_c       10.109271049499512
_cell_angle_alpha    106.184537585805
_cell_angle_beta     100.58508108328668
_cell_angle_gamma    89.98201870508625

_space_group_name_H-M_alt    "P 1"
_space_group_IT_number       1

loop_
  _space_group_symop_operation_xyz
  'x, y, z'

loop_
  _atom_site_type_symbol
  _atom_site_label
  _atom_site_symmetry_multiplicity
  _atom_site_fract_x
  _atom_site_fract_y
  _atom_site_fract_z
  _atom_site_occupancy
  Ba  Ba1       1.0  0.6941224956446932  0.6819303946913181  0.6513737105647601  1.0000
  Ti  Ti1       1.0  0.9957235144445886  0.5103639773116649  0.25457752897135144  1.0000
  Ba  Ba2       1.0  0.10055055289854627  0.08767525769191636  0.4627671215972188  1.0000
  Ba  Ba3       1.0  0.3970488054194074  0.8761156728611398  0.05706148617709283  1.0000
  O   O1        1.0  0.10102305536312384  0.5902276557496731  0.46489900361789266  1.0000
  O   O2        1.0  0.6935945099640477  0.1819517049769616  0.6492541616973916  1.0000
  O   O3        1.0  0.2879760686614021  0.4406030404855856  0.8384046710946904  1.0000
  Ti  Ti2       1.0  0.798177749076868  0.3123863533496376  0.8594894142594803  1.0000
  O   O4        1.0  0.8971527613344057  0.5264987626869609  0.056941928120913525  1.0000
  O   O5        1.0  0.8139552036498419  0.018380916258055456  0.8912140566715578  1.0000
  O   O6        1.0  0.5062829629348736  0.6595644859713568  0.27547166785273836  1.0000
  O   O7        1.0  0.9799934092754119  0.18479614453244475  0.22298485028183884  1.0000
