data_image0
_chemical_formula_structural       OBaOBaO2BaTiO2
_chemical_formula_sum              "O6 Ba3 Ti1"
_cell_length_a       6.313242163184049
_cell_length_b       6.315538295534224
_cell_length_c       6.313655853271484
_cell_angle_alpha    60.0289622817218
_cell_angle_beta     60.02467820393033
_cell_angle_gamma    60.035901567221195

_space_group_name_H-M_alt    "P 1"
_space_group_IT_number       1

loop_
  _space_group_symop_operation_xyz
  'x, y, z'

loop_
  _atom_site_type_symbol
  _atom_site_label
  _atom_site_symmetry_multiplicity
  _atom_site_fract_x
  _atom_site_fract_y
  _atom_site_fract_z
  _atom_site_occupancy
  O   O1        1.0  0.660150487500342  0.2211816086932117  0.5558266074309978  1.0000
  Ba  Ba1       1.0  0.630167851568295  0.7508677763652378  0.08539033778059832  1.0000
  O   O2        1.0  0.10140828096250255  0.7801189165992222  0.5552508487526965  1.0000
  Ba  Ba2       1.0  0.38033631638797943  0.5008341239125581  0.8353265026264086  1.0000
  O   O3        1.0  0.10081842837901216  0.7800468301331478  0.11490399111857176  1.0000
  O   O4        1.0  0.6598351385985257  0.7803317042005815  0.5556608449847392  1.0000
  Ba  Ba3       1.0  0.130442447566288  0.2508748004479145  0.5853633996327999  1.0000
  Ti  Ti1       1.0  0.8802670966511208  0.0008976367072852376  0.33533365910132545  1.0000
  O   O5        1.0  0.10121461630130775  0.22088028948056992  0.11465941247070946  1.0000
  O   O6        1.0  0.6597447531763708  0.22092340201350685  0.11498916949652531  1.0000
