data_image0
_chemical_formula_structural       BaOTiO
_chemical_formula_sum              "Ba1 O2 Ti1"
_cell_length_a       3.2593528498435926
_cell_length_b       3.2590471641131713
_cell_length_c       6.538291931152344
_cell_angle_alpha    75.51392118261317
_cell_angle_beta     75.5532907884825
_cell_angle_gamma    59.96879450085085

_space_group_name_H-M_alt    "P 1"
_space_group_IT_number       1

loop_
  _space_group_symop_operation_xyz
  'x, y, z'

loop_
  _atom_site_type_symbol
  _atom_site_label
  _atom_site_symmetry_multiplicity
  _atom_site_fract_x
  _atom_site_fract_y
  _atom_site_fract_z
  _atom_site_occupancy
  Ba  Ba1       1.0  0.56400664279012  0.560272410044495  0.14466224921872978  1.0000
  O   O1        1.0  0.0073298706779996985  0.002604717598579958  0.8159160446210847  1.0000
  Ti  Ti1       1.0  0.39470714402999796  0.38994024626045537  0.6539154491908293  1.0000
  O   O2        1.0  0.7833105817423948  0.7788435243529596  0.48778714680312646  1.0000
