data_image0
_chemical_formula_structural       BaO2BaO2TiO
_chemical_formula_sum              "Ba2 O5 Ti1"
_cell_length_a       4.003585718627136
_cell_length_b       4.003180847529813
_cell_length_c       8.436100006103516
_cell_angle_alpha    101.41393178943501
_cell_angle_beta     103.74316963151173
_cell_angle_gamma    90.0336823116131

_space_group_name_H-M_alt    "P 1"
_space_group_IT_number       1

loop_
  _space_group_symop_operation_xyz
  'x, y, z'

loop_
  _atom_site_type_symbol
  _atom_site_label
  _atom_site_symmetry_multiplicity
  _atom_site_fract_x
  _atom_site_fract_y
  _atom_site_fract_z
  _atom_site_occupancy
  Ba  Ba1       1.0  0.7724825374735096  0.3630656465737193  0.216635486168111  1.0000
  O   O1        1.0  0.14505536547676845  0.2638913623966044  0.9641125996157957  1.0000
  O   O2        1.0  0.3504025422934094  0.11532674638063303  0.3725064381786986  1.0000
  Ba  Ba2       1.0  0.5114224667539248  0.16648265974535675  0.6939864638845714  1.0000
  O   O3        1.0  0.2753429993651212  0.8317373430459465  0.22342120841762317  1.0000
  O   O4        1.0  0.018607305347346333  0.6671891370970437  0.7105157102248559  1.0000
  Ti  Ti1       1.0  0.13586566999699692  0.7832884874333466  0.9393110573063501  1.0000
  O   O5        1.0  0.6403048033701016  0.7641859364246847  0.9560047648890964  1.0000
