data_image0
_chemical_formula_structural       TiBaOTiBaTiO6
_chemical_formula_sum              "Ti3 Ba2 O7"
_cell_length_a       3.906875637158651
_cell_length_b       5.96813002364094
_cell_length_c       8.456772804260254
_cell_angle_alpha    109.36835006827025
_cell_angle_beta     103.17715851345008
_cell_angle_gamma    89.94941822071543

_space_group_name_H-M_alt    "P 1"
_space_group_IT_number       1

loop_
  _space_group_symop_operation_xyz
  'x, y, z'

loop_
  _atom_site_type_symbol
  _atom_site_label
  _atom_site_symmetry_multiplicity
  _atom_site_fract_x
  _atom_site_fract_y
  _atom_site_fract_z
  _atom_site_occupancy
  Ti  Ti1       1.0  0.03671721227002389  0.8133319205034418  0.9639045539769724  1.0000
  Ba  Ba1       1.0  0.7130425709673882  0.9777323162007235  0.31895147811579305  1.0000
  O   O1        1.0  0.7293017255520357  0.4612610205860773  0.350211677163669  1.0000
  Ti  Ti2       1.0  0.20418971918574016  0.4661255977469873  0.2997865251998175  1.0000
  Ba  Ba2       1.0  0.49910790741689187  0.2856637737527276  0.8906474973105292  1.0000
  Ti  Ti3       1.0  0.8579000490075114  0.664910745021583  0.6080311695825821  1.0000
  O   O2        1.0  0.5428819417735431  0.805925283865596  0.9764624964625909  1.0000
  O   O3        1.0  0.942131020649187  0.9694692322232537  0.7757560264914742  1.0000
  O   O4        1.0  0.13638596512188828  0.14012027609436037  0.16366097946146774  1.0000
  O   O5        1.0  0.13022773531991214  0.6354509173754  0.1513585192402359  1.0000
  O   O6        1.0  0.32427332361776084  0.695427027432378  0.5407213594072809  1.0000
  O   O7        1.0  0.9277320956757049  0.48379680117532825  0.7455095537377864  1.0000
