data_image0
_chemical_formula_structural       OBaOTi
_chemical_formula_sum              "O2 Ba1 Ti1"
_cell_length_a       3.274839293547296
_cell_length_b       3.2767651772252107
_cell_length_c       6.499773979187012
_cell_angle_alpha    75.35468330707592
_cell_angle_beta     75.37925758382559
_cell_angle_gamma    59.96218438150706

_space_group_name_H-M_alt    "P 1"
_space_group_IT_number       1

loop_
  _space_group_symop_operation_xyz
  'x, y, z'

loop_
  _atom_site_type_symbol
  _atom_site_label
  _atom_site_symmetry_multiplicity
  _atom_site_fract_x
  _atom_site_fract_y
  _atom_site_fract_z
  _atom_site_occupancy
  O   O1        1.0  0.6111776881764472  0.984922267297595  0.8749043209972088  1.0000
  Ba  Ba1       1.0  0.053792923947989554  0.42765397534692423  0.5468026690335184  1.0000
  O   O2        1.0  0.8351393977059073  0.20856204200250494  0.20325924471240034  1.0000
  Ti  Ti1       1.0  0.22398798198059822  0.5975395962598128  0.03664292389336634  1.0000
