data_image0
_chemical_formula_structural       OBaTiO3
_chemical_formula_sum              "O4 Ba1 Ti1"
_cell_length_a       3.9536102988976256
_cell_length_b       4.07792567762514
_cell_length_c       5.181418418884277
_cell_angle_alpha    95.16687002154211
_cell_angle_beta     90.10241436194377
_cell_angle_gamma    90.0444806998487

_space_group_name_H-M_alt    "P 1"
_space_group_IT_number       1

loop_
  _space_group_symop_operation_xyz
  'x, y, z'

loop_
  _atom_site_type_symbol
  _atom_site_label
  _atom_site_symmetry_multiplicity
  _atom_site_fract_x
  _atom_site_fract_y
  _atom_site_fract_z
  _atom_site_occupancy
  O   O1        1.0  0.1816504354544716  0.1904973019554991  0.1905320599949238  1.0000
  Ba  Ba1       1.0  0.6780051038280628  0.6245687175479132  0.17998068382911103  1.0000
  Ti  Ti1       1.0  0.15381667649807013  0.051870712740207825  0.7748190659902792  1.0000
  O   O2        1.0  0.18314911761783398  0.9709218766704786  0.39791414417189974  1.0000
  O   O3        1.0  0.6901679708357118  0.10019456379577334  0.8014663094481208  1.0000
  O   O4        1.0  0.18166247990079562  0.6144697020795988  0.8138252021457872  1.0000
