data_image0
_chemical_formula_structural       O2BaTiBaO2Ba2O3TiO
_chemical_formula_sum              "O8 Ba4 Ti2"
_cell_length_a       6.018679337962166
_cell_length_b       6.139921308085255
_cell_length_c       8.097078323364258
_cell_angle_alpha    89.98868488159393
_cell_angle_beta     89.98537906864169
_cell_angle_gamma    116.94446452305455

_space_group_name_H-M_alt    "P 1"
_space_group_IT_number       1

loop_
  _space_group_symop_operation_xyz
  'x, y, z'

loop_
  _atom_site_type_symbol
  _atom_site_label
  _atom_site_symmetry_multiplicity
  _atom_site_fract_x
  _atom_site_fract_y
  _atom_site_fract_z
  _atom_site_occupancy
  O   O1        1.0  0.8340279815388683  0.8438677496941226  0.06943868569884766  1.0000
  O   O2        1.0  0.02768807839762998  0.45238331133701665  0.0694559779003969  1.0000
  Ba  Ba1       1.0  0.4039895152689433  0.8877729926575747  0.0694349347841242  1.0000
  Ti  Ti1       1.0  0.7520720297957684  0.5113371419691876  0.06948182744604757  1.0000
  Ba  Ba2       1.0  0.07106866257480488  0.18481369877618087  0.3191706588321969  1.0000
  O   O3        1.0  0.7105373207550048  0.01205454556462704  0.5694238209177976  1.0000
  O   O4        1.0  0.566585093995862  0.3490735706917361  0.8905408942089893  1.0000
  Ba  Ba3       1.0  0.7406133079642003  0.49899235831680655  0.569466955203122  1.0000
  Ba  Ba4       1.0  0.07095988594412271  0.18473355394474425  0.8198010372819224  1.0000
  O   O5        1.0  0.1956140374262964  0.8307583718218102  0.748737219201621  1.0000
  O   O6        1.0  0.566639038106064  0.3492768349180827  0.24856585523670674  1.0000
  O   O7        1.0  0.19582081827019887  0.8306812388558724  0.3900147086321943  1.0000
  Ti  Ti2       1.0  0.36620602668059515  0.8070659181364195  0.5694167363654621  1.0000
  O   O8        1.0  0.3035189046799039  0.4839615347020943  0.5694066851835259  1.0000
