data_image0
_chemical_formula_structural       Ti2BaO2BaTiBaO8
_chemical_formula_sum              "Ti3 Ba3 O10"
_cell_length_a       5.661741760972769
_cell_length_b       6.094265197493547
_cell_length_c       9.92042350769043
_cell_angle_alpha    101.3916779788351
_cell_angle_beta     89.63038683786381
_cell_angle_gamma    109.81435091514138

_space_group_name_H-M_alt    "P 1"
_space_group_IT_number       1

loop_
  _space_group_symop_operation_xyz
  'x, y, z'

loop_
  _atom_site_type_symbol
  _atom_site_label
  _atom_site_symmetry_multiplicity
  _atom_site_fract_x
  _atom_site_fract_y
  _atom_site_fract_z
  _atom_site_occupancy
  Ti  Ti1       1.0  0.5173777459569098  0.6882563983153913  0.23088915945902475  1.0000
  Ti  Ti2       1.0  0.3645567228629447  0.3801731873694453  0.8907710955252155  1.0000
  Ba  Ba1       1.0  0.8501505358567027  0.36326135009680044  0.33702616123863544  1.0000
  O   O1        1.0  0.1379335305095649  0.49214731175267434  0.8088764788011068  1.0000
  O   O2        1.0  0.7249437532790457  0.1997096155598932  0.5710161280176459  1.0000
  Ba  Ba2       1.0  0.08409536408268348  0.8455976751903804  0.03612505886442009  1.0000
  Ti  Ti3       1.0  0.8666831058851056  0.47104376698669387  0.6921228984714648  1.0000
  Ba  Ba3       1.0  0.47890089721709367  0.8002752373738397  0.6276830025600241  1.0000
  O   O3        1.0  0.22251060729495092  0.42776505262465414  0.07608096644891352  1.0000
  O   O4        1.0  0.3671620739429964  0.5568734950519647  0.37262050157042303  1.0000
  O   O5        1.0  0.4723747304808411  0.9541009154566351  0.2003931432459907  1.0000
  O   O6        1.0  0.9657585370072181  0.6772930661237834  0.5841316717077092  1.0000
  O   O7        1.0  0.8543142522315063  0.7840889194527627  0.26669466572942974  1.0000
  O   O8        1.0  0.5673878104104318  0.4550635892888483  0.0672395341625914  1.0000
  O   O9        1.0  0.6480621899185373  0.5717064171466423  0.8119149465632308  1.0000
  O   O10       1.0  0.3028199386202343  0.07633180741648639  0.8337746722460851  1.0000
