data_image0
_chemical_formula_structural       BaOBaTiO3TiO2
_chemical_formula_sum              "Ba2 O6 Ti2"
_cell_length_a       5.652692196078739
_cell_length_b       5.646888413883842
_cell_length_c       5.822083950042725
_cell_angle_alpha    118.99222336538628
_cell_angle_beta     119.06398055311374
_cell_angle_gamma    90.2050717003403

_space_group_name_H-M_alt    "P 1"
_space_group_IT_number       1

loop_
  _space_group_symop_operation_xyz
  'x, y, z'

loop_
  _atom_site_type_symbol
  _atom_site_label
  _atom_site_symmetry_multiplicity
  _atom_site_fract_x
  _atom_site_fract_y
  _atom_site_fract_z
  _atom_site_occupancy
  Ba  Ba1       1.0  0.5122927543291821  0.5232389122202715  0.0580251740865022  1.0000
  O   O1        1.0  0.5368822492016336  0.047919207444100845  0.10801576913082726  1.0000
  Ba  Ba2       1.0  0.012266065838435621  0.023231241676641236  0.057965695653709785  1.0000
  Ti  Ti1       1.0  0.7535382974409875  0.26412983969855397  0.5387214986829074  1.0000
  O   O2        1.0  0.5254714388169511  0.5368382259515161  0.5856654211562979  1.0000
  O   O3        1.0  0.025471493654679222  0.036826901713254916  0.5858860514572026  1.0000
  O   O4        1.0  0.5257763963086258  0.03711954565885632  0.5868458831549814  1.0000
  Ti  Ti2       1.0  0.25353041037288926  0.7641446626197361  0.5387403544536289  1.0000
  O   O5        1.0  0.025947055183086477  0.5370401117744804  0.5869518078736107  1.0000
  O   O6        1.0  0.03668443206068307  0.5479542166002339  0.10799766699874677  1.0000
