data_image0
_chemical_formula_structural       BaOTiBaO3TiO2
_chemical_formula_sum              "Ba2 O6 Ti2"
_cell_length_a       5.564339677181554
_cell_length_b       5.56404118523167
_cell_length_c       6.04557466506958
_cell_angle_alpha    117.28441538471047
_cell_angle_beta     117.29390735505518
_cell_angle_gamma    89.99061814066013

_space_group_name_H-M_alt    "P 1"
_space_group_IT_number       1

loop_
  _space_group_symop_operation_xyz
  'x, y, z'

loop_
  _atom_site_type_symbol
  _atom_site_label
  _atom_site_symmetry_multiplicity
  _atom_site_fract_x
  _atom_site_fract_y
  _atom_site_fract_z
  _atom_site_occupancy
  Ba  Ba1       1.0  0.40968600876438493  0.10799487125172219  0.5593117962977306  1.0000
  O   O1        1.0  0.9618520680374004  0.1603710169180952  0.6630726720396625  1.0000
  Ti  Ti1       1.0  0.6559321024252055  0.8544105159995489  0.05271732132247997  1.0000
  Ba  Ba2       1.0  0.9098136359668709  0.6080374379541283  0.5593872433691451  1.0000
  O   O2        1.0  0.9431732819712031  0.6411067169624318  0.12442364686411148  1.0000
  O   O3        1.0  0.44294832876393525  0.14083551730913657  0.1241948606878201  1.0000
  O   O4        1.0  0.4623232787916031  0.6604742946754184  0.6631390627289376  1.0000
  Ti  Ti2       1.0  0.15585238697616866  0.3543854181707294  0.05267847673143381  1.0000
  O   O5        1.0  0.9430969317224656  0.14109748218087573  0.12437093287370908  1.0000
  O   O6        1.0  0.4430029825170813  0.6408178167396317  0.12409886541448537  1.0000
