data_image0
_chemical_formula_structural       Ba3OTiOBaO3TiO
_chemical_formula_sum              "Ba4 O6 Ti2"
_cell_length_a       4.028944749362789
_cell_length_b       4.030092262555764
_cell_length_c       14.712197303771974
_cell_angle_alpha    89.99385533432635
_cell_angle_beta     90.02046575250708
_cell_angle_gamma    90.00630676918054

_space_group_name_H-M_alt    "P 1"
_space_group_IT_number       1

loop_
  _space_group_symop_operation_xyz
  'x, y, z'

loop_
  _atom_site_type_symbol
  _atom_site_label
  _atom_site_symmetry_multiplicity
  _atom_site_fract_x
  _atom_site_fract_y
  _atom_site_fract_z
  _atom_site_occupancy
  Ba  Ba1       1.0  0.4645164694078753  0.5212923396969669  0.4850929713879417  1.0000
  Ba  Ba2       1.0  0.4647391206193593  0.5212136909773082  0.7565213261489198  1.0000
  Ba  Ba3       1.0  0.9642629848729397  0.021673555050417046  0.2868548158874437  1.0000
  O   O1        1.0  0.9645584243717749  0.021184372548763302  0.47845260695231706  1.0000
  Ti  Ti1       1.0  0.9646759221025888  0.02120263929446046  0.6115450423743529  1.0000
  O   O2        1.0  0.46408144891053615  0.021774805885274685  0.14871149958893698  1.0000
  Ba  Ba4       1.0  0.9640903032411513  0.021766908882368513  0.015397886067251582  1.0000
  O   O3        1.0  0.46427448761998463  0.5217238125294905  0.29350617837841186  1.0000
  O   O4        1.0  0.46471521669890375  0.02118925299317766  0.62327198104904  1.0000
  O   O5        1.0  0.9647065750946558  0.5211814137927405  0.623252736247171  1.0000
  Ti  Ti2       1.0  0.4641236739672805  0.521745451449142  0.16040699438772626  1.0000
  O   O6        1.0  0.9640710276859392  0.5217642932803225  0.14866899615900317  1.0000
