data_image0
_chemical_formula_structural       BaOBaTiO3Ba
_chemical_formula_sum              "Ba3 O4 Ti1"
_cell_length_a       6.043359198977432
_cell_length_b       6.034918662001655
_cell_length_c       6.029992580413818
_cell_angle_alpha    95.21173045881747
_cell_angle_beta     116.8658740744587
_cell_angle_gamma    116.90631004730176

_space_group_name_H-M_alt    "P 1"
_space_group_IT_number       1

loop_
  _space_group_symop_operation_xyz
  'x, y, z'

loop_
  _atom_site_type_symbol
  _atom_site_label
  _atom_site_symmetry_multiplicity
  _atom_site_fract_x
  _atom_site_fract_y
  _atom_site_fract_z
  _atom_site_occupancy
  Ba  Ba1       1.0  0.9950845559201065  0.14552245623878443  0.9092736297219568  1.0000
  O   O1        1.0  0.49373326415307806  0.12359617056489142  0.8167167512922089  1.0000
  Ba  Ba2       1.0  0.49468438438061235  0.8965127412740397  0.16071344689528272  1.0000
  Ti  Ti1       1.0  0.49453967240037017  0.3937132567308246  0.6579151941378348  1.0000
  O   O2        1.0  0.9229176509182999  0.6588940576125306  0.9234198669474787  1.0000
  O   O3        1.0  0.4941681207314921  0.5535417472348189  0.3884519586827664  1.0000
  O   O4        1.0  0.06547395662748708  0.23053522158799739  0.49492015275713985  1.0000
  Ba  Ba3       1.0  0.9949319405422284  0.6450778667013087  0.40958073177949283  1.0000
