data_image0
_chemical_formula_structural       Ba2TiO2TiOBaO4
_chemical_formula_sum              "Ba3 Ti2 O7"
_cell_length_a       4.076534129547938
_cell_length_b       4.07509144770798
_cell_length_c       11.084628105163574
_cell_angle_alpha    100.56327963027272
_cell_angle_beta     100.58997967493973
_cell_angle_gamma    89.8649216964953

_space_group_name_H-M_alt    "P 1"
_space_group_IT_number       1

loop_
  _space_group_symop_operation_xyz
  'x, y, z'

loop_
  _atom_site_type_symbol
  _atom_site_label
  _atom_site_symmetry_multiplicity
  _atom_site_fract_x
  _atom_site_fract_y
  _atom_site_fract_z
  _atom_site_occupancy
  Ba  Ba1       1.0  0.31524896281996173  0.847432510028581  0.17849408537826444  1.0000
  Ba  Ba2       1.0  0.9492891581068951  0.4815283036510122  0.4463905581998358  1.0000
  Ti  Ti1       1.0  0.5515176114884026  0.08358080809548457  0.6229736503967783  1.0000
  O   O1        1.0  0.5262819107475757  0.547175483508974  0.6236421891869782  1.0000
  O   O2        1.0  0.43158096573050364  0.9640358984094962  0.4404054615085907  1.0000
  Ti  Ti2       1.0  0.7410345165752701  0.27321387015967213  0.0019173902609045017  1.0000
  O   O3        1.0  0.6153537412612266  0.14771545233971073  0.8124512545133419  1.0000
  Ba  Ba3       1.0  0.13293230683246873  0.6651204672126261  0.8124546061849354  1.0000
  O   O4        1.0  0.20356102804838117  0.24752604726510014  0.0012444216468183403  1.0000
  O   O5        1.0  0.8032922324418817  0.335485366392646  0.18451158381075664  1.0000
  O   O6        1.0  0.715111979412963  0.7359453382384843  0.00123055884277858  1.0000
  O   O7        1.0  0.014755059422812666  0.05855045395009213  0.6236401454240292  1.0000
