data_image0
_chemical_formula_structural       Ba3O4Ti2OTiO4
_chemical_formula_sum              "Ba3 O9 Ti3"
_cell_length_a       4.243915579219471
_cell_length_b       5.654806892515326
_cell_length_c       8.934135437011719
_cell_angle_alpha    108.43110365755162
_cell_angle_beta     89.97223778714509
_cell_angle_gamma    90.01216024106131

_space_group_name_H-M_alt    "P 1"
_space_group_IT_number       1

loop_
  _space_group_symop_operation_xyz
  'x, y, z'

loop_
  _atom_site_type_symbol
  _atom_site_label
  _atom_site_symmetry_multiplicity
  _atom_site_fract_x
  _atom_site_fract_y
  _atom_site_fract_z
  _atom_site_occupancy
  Ba  Ba1       1.0  0.7479447954867143  0.7667048637202152  0.6664321666965792  1.0000
  Ba  Ba2       1.0  0.7478212428338521  0.433334838384663  0.9997539400841052  1.0000
  Ba  Ba3       1.0  0.7477050772600693  0.10003481679970576  0.33320444640372215  1.0000
  O   O1        1.0  0.21808237841217984  0.767074950588739  0.16640690770907418  1.0000
  O   O2        1.0  0.21810773405630662  0.26717625064747574  0.16648495393838994  1.0000
  O   O3        1.0  0.21832461874379375  0.600480695570873  0.8332649746219671  1.0000
  O   O4        1.0  0.6950977370697635  0.933524793375184  0.9998808275236667  1.0000
  Ti  Ti1       1.0  0.266837402468404  0.9328639261513497  0.9999080918500937  1.0000
  Ti  Ti2       1.0  0.26667204805137606  0.5994851535707841  0.3331495387248681  1.0000
  O   O5        1.0  0.21809080792455354  0.43385127565403886  0.49978491996901825  1.0000
  Ti  Ti3       1.0  0.2669277554546201  0.2661945474059031  0.6665366807041014  1.0000
  O   O6        1.0  0.6952818062709664  0.266890140653187  0.6663769335423095  1.0000
  O   O7        1.0  0.2182237662094786  0.10052922627407161  0.8330846846394658  1.0000
  O   O8        1.0  0.2180657302041732  0.9339135175779738  0.4998725874062255  1.0000
  O   O9        1.0  0.695013411910824  0.6002807384317983  0.3331930027820234  1.0000
