data_image0
_chemical_formula_structural       BaO2TiOBaO4TiBa
_chemical_formula_sum              "Ba3 O7 Ti2"
_cell_length_a       4.080725854199518
_cell_length_b       4.085748462506604
_cell_length_c       11.105100631713867
_cell_angle_alpha    100.35284187619513
_cell_angle_beta     100.36815401578737
_cell_angle_gamma    89.69737742787252

_space_group_name_H-M_alt    "P 1"
_space_group_IT_number       1

loop_
  _space_group_symop_operation_xyz
  'x, y, z'

loop_
  _atom_site_type_symbol
  _atom_site_label
  _atom_site_symmetry_multiplicity
  _atom_site_fract_x
  _atom_site_fract_y
  _atom_site_fract_z
  _atom_site_occupancy
  Ba  Ba1       1.0  0.5985843522365272  0.5649578674727046  0.12937625803753883  1.0000
  O   O1        1.0  0.11576273092556043  0.08220426855860742  0.13529842525809604  1.0000
  O   O2        1.0  0.748420278428345  0.7149605420889378  0.39227379741679264  1.0000
  Ti  Ti1       1.0  0.9968028765591883  0.9630182388021217  0.9531535897367911  1.0000
  O   O3        1.0  0.9337165229291557  0.9005574367632815  0.7636842892792158  1.0000
  Ba  Ba2       1.0  0.23572792300993792  0.20210595095158657  0.3981141528746796  1.0000
  O   O4        1.0  0.5340532845262287  0.9892395007913435  0.9525795737738836  1.0000
  O   O5        1.0  0.3468789966608093  0.8016050156794294  0.5751351804827727  1.0000
  O   O6        1.0  0.8349088018380926  0.31391143765324986  0.5751372279881283  1.0000
  O   O7        1.0  0.022279051874163246  0.5012786407246841  0.9525785354372976  1.0000
  Ti  Ti2       1.0  0.8082355875800605  0.7742884788925547  0.5742539711577133  1.0000
  Ba  Ba3       1.0  0.41608202483820994  0.38262870855038233  0.7637122876887698  1.0000
