data_image0
_chemical_formula_structural       TiOTiOBaO3BaO
_chemical_formula_sum              "Ti2 O6 Ba2"
_cell_length_a       4.277624608258185
_cell_length_b       5.641463103882566
_cell_length_c       5.643918514251709
_cell_angle_alpha    90.05069617045226
_cell_angle_beta     90.00134122161685
_cell_angle_gamma    90.01334186451646

_space_group_name_H-M_alt    "P 1"
_space_group_IT_number       1

loop_
  _space_group_symop_operation_xyz
  'x, y, z'

loop_
  _atom_site_type_symbol
  _atom_site_label
  _atom_site_symmetry_multiplicity
  _atom_site_fract_x
  _atom_site_fract_y
  _atom_site_fract_z
  _atom_site_occupancy
  Ti  Ti1       1.0  0.845533587745441  0.5087052229412962  0.1577853780265528  1.0000
  O   O1        1.0  0.2698358367344614  0.5091293309035565  0.15838512572742214  1.0000
  Ti  Ti2       1.0  0.8454868133736128  0.008718619733114167  0.657760391058158  1.0000
  O   O2        1.0  0.7940584407122306  0.759386460129315  0.4087066242926376  1.0000
  Ba  Ba1       1.0  0.3274139664994549  0.5090141064076228  0.6582050307409635  1.0000
  O   O3        1.0  0.7943544121309358  0.7592764151773994  0.9085867347748342  1.0000
  O   O4        1.0  0.7940826898776506  0.2594306948024897  0.9086556876926785  1.0000
  O   O5        1.0  0.7943167775159062  0.25918366036098095  0.40850701469458883  1.0000
  Ba  Ba2       1.0  0.32726916566314895  0.00900154171241856  0.15816999745128904  1.0000
  O   O6        1.0  0.2698470327225891  0.009157746240221025  0.6583190348833406  1.0000
