data_image0
_chemical_formula_structural       TiBaO4
_chemical_formula_sum              "Ti1 Ba1 O4"
_cell_length_a       3.8767868570523167
_cell_length_b       3.891127187256987
_cell_length_c       5.449368000030518
_cell_angle_alpha    90.05787469655344
_cell_angle_beta     90.06850247056086
_cell_angle_gamma    89.98719589984225

_space_group_name_H-M_alt    "P 1"
_space_group_IT_number       1

loop_
  _space_group_symop_operation_xyz
  'x, y, z'

loop_
  _atom_site_type_symbol
  _atom_site_label
  _atom_site_symmetry_multiplicity
  _atom_site_fract_x
  _atom_site_fract_y
  _atom_site_fract_z
  _atom_site_occupancy
  Ti  Ti1       1.0  0.6772408025400567  0.09355649589348762  0.32115170857582487  1.0000
  Ba  Ba1       1.0  0.15583673970087744  0.5681549713398972  0.9086965736112078  1.0000
  O   O1        1.0  0.14475671248945884  0.10942528673189686  0.2759665015315327  1.0000
  O   O2        1.0  0.6533343090979735  0.2444262282312328  0.6631892303923654  1.0000
  O   O3        1.0  0.6529820334263541  0.029542438683795857  0.8849257994763797  1.0000
  O   O4        1.0  0.6463890196877364  0.6184676750092013  0.2699783113672889  1.0000
