data_image0
_chemical_formula_structural       BaTiO2
_chemical_formula_sum              "Ba1 Ti1 O2"
_cell_length_a       3.262121383218301
_cell_length_b       3.259471986336728
_cell_length_c       6.520792484283447
_cell_angle_alpha    75.50708392111815
_cell_angle_beta     75.54600949519354
_cell_angle_gamma    60.08960007432003

_space_group_name_H-M_alt    "P 1"
_space_group_IT_number       1

loop_
  _space_group_symop_operation_xyz
  'x, y, z'

loop_
  _atom_site_type_symbol
  _atom_site_label
  _atom_site_symmetry_multiplicity
  _atom_site_fract_x
  _atom_site_fract_y
  _atom_site_fract_z
  _atom_site_occupancy
  Ba  Ba1       1.0  0.7434606868840942  0.8615681363136871  0.8049426221498669  1.0000
  Ti  Ti1       1.0  0.9131449636053453  0.03207188296539013  0.2950246373835747  1.0000
  O   O1        1.0  0.5242110751364047  0.642988176002989  0.46167273067858944  1.0000
  O   O2        1.0  0.30053950370616717  0.41938968348713646  0.13301700558232868  1.0000
