data_image0
_chemical_formula_structural       BaO3TiO
_chemical_formula_sum              "Ba1 O4 Ti1"
_cell_length_a       3.8671135835124346
_cell_length_b       3.955651217551887
_cell_length_c       6.576888084411622
_cell_angle_alpha    107.06452649341715
_cell_angle_beta     89.85920498759783
_cell_angle_gamma    90.0413729612019

_space_group_name_H-M_alt    "P 1"
_space_group_IT_number       1

loop_
  _space_group_symop_operation_xyz
  'x, y, z'

loop_
  _atom_site_type_symbol
  _atom_site_label
  _atom_site_symmetry_multiplicity
  _atom_site_fract_x
  _atom_site_fract_y
  _atom_site_fract_z
  _atom_site_occupancy
  Ba  Ba1       1.0  0.38667100783068226  0.3246965314425199  0.6151645545039437  1.0000
  O   O1        1.0  0.3873322156702691  0.01449650252063967  0.9945341742645594  1.0000
  O   O2        1.0  0.8871475792979985  0.8695051147756763  0.70439299180388  1.0000
  O   O3        1.0  0.8872439464164831  0.17835416833397114  0.3233638015037406  1.0000
  Ti  Ti1       1.0  0.887009571350475  0.031119382464827632  0.031802292003732406  1.0000
  O   O4        1.0  0.8873690583876184  0.5246766664474042  0.01681535311028637  1.0000
