data_image0
_chemical_formula_structural       Ba2TiO2TiO4
_chemical_formula_sum              "Ba2 Ti2 O6"
_cell_length_a       6.174037557590668
_cell_length_b       5.4464115974688445
_cell_length_c       6.0023698806762695
_cell_angle_alpha    65.29871938352792
_cell_angle_beta     73.07464283122684
_cell_angle_gamma    61.91763736382071

_space_group_name_H-M_alt    "P 1"
_space_group_IT_number       1

loop_
  _space_group_symop_operation_xyz
  'x, y, z'

loop_
  _atom_site_type_symbol
  _atom_site_label
  _atom_site_symmetry_multiplicity
  _atom_site_fract_x
  _atom_site_fract_y
  _atom_site_fract_z
  _atom_site_occupancy
  Ba  Ba1       1.0  0.05246417740863761  0.9051941251298533  0.9911504893141575  1.0000
  Ba  Ba2       1.0  0.33527837667203636  0.12072797631208178  0.2758010825338619  1.0000
  Ti  Ti1       1.0  0.7696258534951627  0.687340794534132  0.7093628695694336  1.0000
  O   O1        1.0  0.9094691111547779  0.3867564477318706  0.5310585351076292  1.0000
  O   O2        1.0  0.9889519707919175  0.46822673440641027  0.9315219556552684  1.0000
  Ti  Ti2       1.0  0.6181861670200562  0.3385998263962241  0.5575241042511953  1.0000
  O   O3        1.0  0.47836627970337736  0.6391512003812956  0.7358959295743229  1.0000
  O   O4        1.0  0.3988771676580364  0.5576193074966225  0.3353568944977264  1.0000
  O   O5        1.0  0.8001260927572148  0.9971901553639662  0.4192952767639992  1.0000
  O   O6        1.0  0.587576948854493  0.028806999969865715  0.8475636021953111  1.0000
