data_image0
_chemical_formula_structural       OBaO2BaO4Ti2O
_chemical_formula_sum              "O8 Ba2 Ti2"
_cell_length_a       4.555399265476846
_cell_length_b       6.205852918854749
_cell_length_c       7.392914295196532
_cell_angle_alpha    101.8887121161751
_cell_angle_beta     92.00378204560647
_cell_angle_gamma    108.54097297022865

_space_group_name_H-M_alt    "P 1"
_space_group_IT_number       1

loop_
  _space_group_symop_operation_xyz
  'x, y, z'

loop_
  _atom_site_type_symbol
  _atom_site_label
  _atom_site_symmetry_multiplicity
  _atom_site_fract_x
  _atom_site_fract_y
  _atom_site_fract_z
  _atom_site_occupancy
  O   O1        1.0  0.44510675906477204  0.954398074574492  0.2462517584324226  1.0000
  Ba  Ba1       1.0  0.7134787388932858  0.44717824614670526  0.3374238989292234  1.0000
  O   O2        1.0  0.30576693374479247  0.952119086923499  0.90639047521487  1.0000
  O   O3        1.0  0.98186159644932  0.9400929419651451  0.4282447082663092  1.0000
  Ba  Ba2       1.0  0.2134844851256869  0.4467840701566359  0.8373211150391444  1.0000
  O   O4        1.0  0.1190027969414678  0.9406467848956039  0.7678989043899088  1.0000
  O   O5        1.0  0.6201960843241049  0.23155958221642667  0.6364737936894108  1.0000
  O   O6        1.0  0.08355783640718074  0.23852579972869983  0.1385145125063072  1.0000
  O   O7        1.0  0.3431675589879689  0.6557209918251904  0.5359759729385012  1.0000
  Ti  Ti1       1.0  0.029383644098066174  0.9499789877381636  0.17736837814985343  1.0000
  Ti  Ti2       1.0  0.3974131994617143  0.9442358811813959  0.4970681447407495  1.0000
  O   O8        1.0  0.8062204766884995  0.6624066642283034  0.03840298260408167  1.0000
