data_image0
_chemical_formula_structural       TiOBaO3
_chemical_formula_sum              "Ti1 O4 Ba1"
_cell_length_a       3.90149245644731
_cell_length_b       3.893285491463533
_cell_length_c       5.279043674468993
_cell_angle_alpha    90.0916909526179
_cell_angle_beta     90.05073714984576
_cell_angle_gamma    89.98087114471478

_space_group_name_H-M_alt    "P 1"
_space_group_IT_number       1

loop_
  _space_group_symop_operation_xyz
  'x, y, z'

loop_
  _atom_site_type_symbol
  _atom_site_label
  _atom_site_symmetry_multiplicity
  _atom_site_fract_x
  _atom_site_fract_y
  _atom_site_fract_z
  _atom_site_occupancy
  Ti  Ti1       1.0  0.5426442124940483  0.7009727033756673  0.19393937675141082  1.0000
  O   O1        1.0  0.00011767928999040222  0.7002972597520936  0.11507784389121836  1.0000
  Ba  Ba1       1.0  0.011137613121856127  0.2016238561533548  0.6535240361498981  1.0000
  O   O2        1.0  0.5010516362791262  0.19940220725392796  0.9859541819802788  1.0000
  O   O3        1.0  0.5366928664903695  0.7015140767267654  0.542457064911768  1.0000
  O   O4        1.0  0.47724481699935717  0.20118835514736694  0.2611195349125468  1.0000
