data_image407
_chemical_formula_structural       BaOTiO
_chemical_formula_sum              "Ba1 O2 Ti1"
_cell_length_a       3.2544807890171334
_cell_length_b       3.256910621447029
_cell_length_c       6.4677815437316895
_cell_angle_alpha    75.46750494380325
_cell_angle_beta     75.47977768788553
_cell_angle_gamma    60.070201780537694

_space_group_name_H-M_alt    "P 1"
_space_group_IT_number       1

loop_
  _space_group_symop_operation_xyz
  'x, y, z'

loop_
  _atom_site_type_symbol
  _atom_site_label
  _atom_site_symmetry_multiplicity
  _atom_site_fract_x
  _atom_site_fract_y
  _atom_site_fract_z
  _atom_site_occupancy
  Ba  Ba1       1.0  0.07010133964228636  0.7239439292812377  0.8854465375854652  1.0000
  O   O1        1.0  0.28920242903319887  0.9430820223857639  0.2277698813542961  1.0000
  Ti  Ti1       1.0  0.9000027502983067  0.5537381122527306  0.39563410752216316  1.0000
  O   O2        1.0  0.5125479127495892  0.1662270934616594  0.5581949092023735  1.0000
