data_image1016
_chemical_formula_structural       Ba2TiO6TiO2
_chemical_formula_sum              "Ba2 Ti2 O8"
_cell_length_a       3.986384958807544
_cell_length_b       6.252148845912514
_cell_length_c       7.316758155822755
_cell_angle_alpha    89.76059755919621
_cell_angle_beta     105.22723068259786
_cell_angle_gamma    89.8901184096235

_space_group_name_H-M_alt    "P 1"
_space_group_IT_number       1

loop_
  _space_group_symop_operation_xyz
  'x, y, z'

loop_
  _atom_site_type_symbol
  _atom_site_label
  _atom_site_symmetry_multiplicity
  _atom_site_fract_x
  _atom_site_fract_y
  _atom_site_fract_z
  _atom_site_occupancy
  Ba  Ba1       1.0  0.7178209145929311  0.635143345832624  0.5669012686326929  1.0000
  Ba  Ba2       1.0  0.4306192289944464  0.13545404763155452  0.9595260471078743  1.0000
  Ti  Ti1       1.0  0.14019990540140712  0.13369772993857848  0.43880203275786056  1.0000
  O   O1        1.0  0.9075295430814244  0.4229388816927312  0.913279618116749  1.0000
  O   O2        1.0  0.056441442816424735  0.93063334839569  0.22108743121060778  1.0000
  O   O3        1.0  0.2410546182841799  0.9214556428759395  0.614462500971522  1.0000
  O   O4        1.0  0.5059692400948007  0.6342473674452553  0.11945493953941638  1.0000
  O   O5        1.0  0.6422121644981376  0.1326561913674266  0.40634634564457744  1.0000
  O   O6        1.0  0.9004397489838724  0.8554385600159039  0.90048479053897  1.0000
  Ti  Ti2       1.0  0.008409030282495733  0.6347172625904451  0.08742617769721618  1.0000
  O   O7        1.0  0.24830140011801832  0.35365173614660894  0.6249458538329675  1.0000
  O   O8        1.0  0.09188855363376904  0.43085347538745306  0.3062264691040391  1.0000
