data_image172
_chemical_formula_structural       BaOTiO3
_chemical_formula_sum              "Ba1 O4 Ti1"
_cell_length_a       3.832315982132808
_cell_length_b       5.150521029575123
_cell_length_c       5.168754577636719
_cell_angle_alpha    87.15603478973124
_cell_angle_beta     90.04168031884225
_cell_angle_gamma    90.06844782901015

_space_group_name_H-M_alt    "P 1"
_space_group_IT_number       1

loop_
  _space_group_symop_operation_xyz
  'x, y, z'

loop_
  _atom_site_type_symbol
  _atom_site_label
  _atom_site_symmetry_multiplicity
  _atom_site_fract_x
  _atom_site_fract_y
  _atom_site_fract_z
  _atom_site_occupancy
  Ba  Ba1       1.0  0.5794762797199  0.06026595949322927  0.21405213937031597  1.0000
  O   O1        1.0  0.07937236555854743  0.8171767055574345  0.4574499083789305  1.0000
  Ti  Ti1       1.0  0.0789779754705864  0.560163867574057  0.7139763608227633  1.0000
  O   O2        1.0  0.5794934013282652  0.6611386106309921  0.8151422411085724  1.0000
  O   O3        1.0  0.07962803956903279  0.30296164177135226  0.9703221555334731  1.0000
  O   O4        1.0  0.5789814447868848  0.45909610076796026  0.6127857179191931  1.0000
