data_image1000
_chemical_formula_structural       TiBaO2
_chemical_formula_sum              "Ti1 Ba1 O2"
_cell_length_a       3.310754758655848
_cell_length_b       3.3144127369616005
_cell_length_c       6.326001644134522
_cell_angle_alpha    74.8353149942839
_cell_angle_beta     74.83618897384943
_cell_angle_gamma    60.01689293825313

_space_group_name_H-M_alt    "P 1"
_space_group_IT_number       1

loop_
  _space_group_symop_operation_xyz
  'x, y, z'

loop_
  _atom_site_type_symbol
  _atom_site_label
  _atom_site_symmetry_multiplicity
  _atom_site_fract_x
  _atom_site_fract_y
  _atom_site_fract_z
  _atom_site_occupancy
  Ti  Ti1       1.0  0.7481166803646965  0.8804721176551417  0.19995669728710713  1.0000
  Ba  Ba1       1.0  0.24845087764320628  0.38074415076122  0.6996427267232896  1.0000
  O   O1        1.0  0.026560030819233024  0.15886192416437517  0.3648467839125997  1.0000
  O   O2        1.0  0.46996553106920697  0.6023200141734087  0.03458877275114682  1.0000
