data_image475
_chemical_formula_structural       Ba2TiO3TiOBaO3
_chemical_formula_sum              "Ba3 Ti2 O7"
_cell_length_a       3.9810671981374277
_cell_length_b       4.049364661680274
_cell_length_c       11.560300827026367
_cell_angle_alpha    100.011925563693
_cell_angle_beta     89.99462714555847
_cell_angle_gamma    89.94062766723458

_space_group_name_H-M_alt    "P 1"
_space_group_IT_number       1

loop_
  _space_group_symop_operation_xyz
  'x, y, z'

loop_
  _atom_site_type_symbol
  _atom_site_label
  _atom_site_symmetry_multiplicity
  _atom_site_fract_x
  _atom_site_fract_y
  _atom_site_fract_z
  _atom_site_occupancy
  Ba  Ba1       1.0  0.7092677723087516  0.9466195741584424  0.7109189978164918  1.0000
  Ba  Ba2       1.0  0.708513858623771  0.5997247137270194  0.01609102634372256  1.0000
  Ti  Ti1       1.0  0.2085315954952351  0.18113998012891738  0.18220295491567712  1.0000
  O   O1        1.0  0.20903235419411884  0.4486791787176888  0.716191362093903  1.0000
  O   O2        1.0  0.20867962680915067  0.6841682507321388  0.18234036923972174  1.0000
  O   O3        1.0  0.20890963567040766  0.09799670021636143  0.010701761154915454  1.0000
  Ti  Ti2       1.0  0.20941278719993492  0.36433639292957  0.5448317151322952  1.0000
  O   O4        1.0  0.2090169351068281  0.27346173344277874  0.36349105819996996  1.0000
  Ba  Ba3       1.0  0.7090303914338766  0.7732321889921576  0.363429844227669  1.0000
  O   O5        1.0  0.7088490078685703  0.18379616505755347  0.18306174772794215  1.0000
  O   O6        1.0  0.7090785255822607  0.3631728372907687  0.5439848963487073  1.0000
  O   O7        1.0  0.2091730560404698  0.8630794812443547  0.5443943371568712  1.0000
