data_image94
_chemical_formula_structural       BaO2
_chemical_formula_sum              "Ba1 O2"
_cell_length_a       3.8706693255454017
_cell_length_b       3.8703239985498445
_cell_length_c       4.403276443481445
_cell_angle_alpha    116.22901336024024
_cell_angle_beta     116.2048095578694
_cell_angle_gamma    89.90258988905637

_space_group_name_H-M_alt    "P 1"
_space_group_IT_number       1

loop_
  _space_group_symop_operation_xyz
  'x, y, z'

loop_
  _atom_site_type_symbol
  _atom_site_label
  _atom_site_symmetry_multiplicity
  _atom_site_fract_x
  _atom_site_fract_y
  _atom_site_fract_z
  _atom_site_occupancy
  Ba  Ba1       1.0  0.7843376960803058  0.2570787337046599  0.23982704127488208  1.0000
  O   O1        1.0  0.17541295566579657  0.6483505412098823  0.021975542077558047  1.0000
  O   O2        1.0  0.39337343064142266  0.8659085922094873  0.45789538610671177  1.0000
