data_image422
_chemical_formula_structural       BaTi2BaO6
_chemical_formula_sum              "Ba2 Ti2 O6"
_cell_length_a       5.431038703917387
_cell_length_b       5.434200416811219
_cell_length_c       6.465610027313232
_cell_angle_alpha    65.22653033023005
_cell_angle_beta     65.20643423379248
_cell_angle_gamma    60.04877041439853

_space_group_name_H-M_alt    "P 1"
_space_group_IT_number       1

loop_
  _space_group_symop_operation_xyz
  'x, y, z'

loop_
  _atom_site_type_symbol
  _atom_site_label
  _atom_site_symmetry_multiplicity
  _atom_site_fract_x
  _atom_site_fract_y
  _atom_site_fract_z
  _atom_site_occupancy
  Ba  Ba1       1.0  0.9978381201602012  0.08328316597995374  0.918283705062542  1.0000
  Ti  Ti1       1.0  0.4601555849856964  0.5459046561608213  0.5308946202795353  1.0000
  Ti  Ti2       1.0  0.7774156403312418  0.8630789668333839  0.5793269104905493  1.0000
  Ba  Ba2       1.0  0.23975684514141668  0.3255242000707998  0.19207820370190043  1.0000
  O   O1        1.0  0.6935756853599768  0.7799767743439536  0.3387147730323929  1.0000
  O   O2        1.0  0.5441933107421439  0.13861560781624324  0.7714432101772492  1.0000
  O   O3        1.0  0.5436655595318953  0.6293364078592254  0.7714346951769024  1.0000
  O   O4        1.0  0.18438865420869274  0.7797261554970274  0.3387862521818742  1.0000
  O   O5        1.0  0.6937058440294213  0.2704111773347269  0.3387829422393217  1.0000
  O   O6        1.0  0.053173789825813556  0.6288895459687243  0.771449700371826  1.0000
