data_image36
_chemical_formula_structural       TiOBaTi2O2BaTiO5TiO2BaO2
_chemical_formula_sum              "Ti5 O12 Ba3"
_cell_length_a       5.7624797755746755
_cell_length_b       5.942235178906876
_cell_length_c       10.495636940002441
_cell_angle_alpha    95.88042648782938
_cell_angle_beta     90.16805932066752
_cell_angle_gamma    119.75159234196732

_space_group_name_H-M_alt    "P 1"
_space_group_IT_number       1

loop_
  _space_group_symop_operation_xyz
  'x, y, z'

loop_
  _atom_site_type_symbol
  _atom_site_label
  _atom_site_symmetry_multiplicity
  _atom_site_fract_x
  _atom_site_fract_y
  _atom_site_fract_z
  _atom_site_occupancy
  Ti  Ti1       1.0  0.3593657498457231  0.2892873292212479  0.6562965799960082  1.0000
  O   O1        1.0  0.6974646519183563  0.2700300785821881  0.024118283816110832  1.0000
  Ba  Ba1       1.0  0.21986523626588414  0.9527205520214815  0.29130859226856104  1.0000
  Ti  Ti2       1.0  0.7919577491101001  0.0490491088394059  0.08845897377734051  1.0000
  Ti  Ti3       1.0  0.5753854855740971  0.6690093579575043  0.3722500055273147  1.0000
  O   O2        1.0  0.8872522285955693  0.8571418460930643  0.5002931805485327  1.0000
  O   O3        1.0  0.019130225256868874  0.24264797156828402  0.6979246726967686  1.0000
  Ba  Ba2       1.0  0.0765660172513226  0.6690228291863113  0.8725594697787019  1.0000
  Ti  Ti4       1.0  0.6759019577365055  0.9095459991458756  0.635375582775732  1.0000
  O   O4        1.0  0.4185432928288362  0.3483474646818005  0.4859179707259388  1.0000
  O   O5        1.0  0.4548058163585249  0.06897771107200801  0.7206264903966765  1.0000
  O   O6        1.0  0.1320308949729843  0.09515354484836612  0.04684137779298262  1.0000
  O   O7        1.0  0.42616695373546004  0.83227528001903  0.4920011646644248  1.0000
  O   O8        1.0  0.2634893027761905  0.4807683748900579  0.24450527337277825  1.0000
  Ti  Ti5       1.0  0.4753162609793508  0.42860039865856625  0.10930101755313178  1.0000
  O   O9        1.0  0.6021541844723272  0.6324935191200586  0.7325383175646423  1.0000
  O   O10       1.0  0.7324710571418165  0.9896128454829708  0.25888232310144815  1.0000
  Ba  Ba3       1.0  0.9310421896219624  0.38532522800329677  0.45343339076816747  1.0000
  O   O11       1.0  0.7246949071695445  0.505530180012317  0.2528780200509011  1.0000
  O   O12       1.0  0.5480560919106334  0.7060373053172138  0.012368719012751763  1.0000
