data_image266
_chemical_formula_structural       TiBaO2
_chemical_formula_sum              "Ti1 Ba1 O2"
_cell_length_a       3.30607994402469
_cell_length_b       3.307452415068364
_cell_length_c       6.330222129821777
_cell_angle_alpha    74.86151632641686
_cell_angle_beta     74.85146950305182
_cell_angle_gamma    60.0236011326118

_space_group_name_H-M_alt    "P 1"
_space_group_IT_number       1

loop_
  _space_group_symop_operation_xyz
  'x, y, z'

loop_
  _atom_site_type_symbol
  _atom_site_label
  _atom_site_symmetry_multiplicity
  _atom_site_fract_x
  _atom_site_fract_y
  _atom_site_fract_z
  _atom_site_occupancy
  Ti  Ti1       1.0  0.38955423833677605  0.23090980649509596  0.20010031421711447  1.0000
  Ba  Ba1       1.0  0.8898450603016739  0.7309273835726474  0.6999408322761151  1.0000
  O   O1        1.0  0.6678984269828413  0.5092187748062459  0.36517842078357166  1.0000
  O   O2        1.0  0.11142266964726501  0.9526769923089567  0.03477815962572036  1.0000
