data_image51
_chemical_formula_structural       O2Ba2OTiBaTiO2BaO4
_chemical_formula_sum              "O9 Ba4 Ti2"
_cell_length_a       4.384357600171451
_cell_length_b       7.1384607065905055
_cell_length_c       9.107535362243652
_cell_angle_alpha    82.02641908009856
_cell_angle_beta     76.98760510254714
_cell_angle_gamma    72.50124077867846

_space_group_name_H-M_alt    "P 1"
_space_group_IT_number       1

loop_
  _space_group_symop_operation_xyz
  'x, y, z'

loop_
  _atom_site_type_symbol
  _atom_site_label
  _atom_site_symmetry_multiplicity
  _atom_site_fract_x
  _atom_site_fract_y
  _atom_site_fract_z
  _atom_site_occupancy
  O   O1        1.0  0.7876535748795145  0.8464545482083963  0.00964210743029037  1.0000
  O   O2        1.0  0.3045335842362633  0.3019903447658606  0.30718688285315965  1.0000
  Ba  Ba1       1.0  0.59579402295513  0.9286822685148712  0.32154592051952996  1.0000
  Ba  Ba2       1.0  0.7818088446136774  0.4612895197591993  0.16452217981445108  1.0000
  O   O3        1.0  0.4607417047707485  0.6314154813963337  0.8730077145025873  1.0000
  Ti  Ti1       1.0  0.1912464480453434  0.8647706306317986  0.014331999985433462  1.0000
  Ba  Ba3       1.0  0.6206176857423545  0.18668233426382894  0.8233952090575765  1.0000
  Ti  Ti2       1.0  0.0163663275940456  0.30544514688752333  0.48860894327566745  1.0000
  O   O4        1.0  0.22602307661806414  0.7607053972807648  0.20610139802995311  1.0000
  O   O5        1.0  0.6984456930595496  0.5436329974607456  0.4764805079478503  1.0000
  Ba  Ba4       1.0  0.0634016591710267  0.6863368673849843  0.6552960731505998  1.0000
  O   O6        1.0  0.14888961376115398  0.31255182326367936  0.6638169677534033  1.0000
  O   O7        1.0  0.08541310694343533  0.13491053499182767  0.015025840677841937  1.0000
  O   O8        1.0  0.9197824518039351  0.06552278065592691  0.5122846751852452  1.0000
  O   O9        1.0  0.4201275939464531  0.8312123655045808  0.7896794006715301  1.0000
