data_image219
_chemical_formula_structural       BaOBaTiO2
_chemical_formula_sum              "Ba2 O3 Ti1"
_cell_length_a       3.710319873184951
_cell_length_b       3.9370887986774608
_cell_length_c       9.692323684692383
_cell_angle_alpha    101.70669410476664
_cell_angle_beta     101.17338663864642
_cell_angle_gamma    89.99331595107762

_space_group_name_H-M_alt    "P 1"
_space_group_IT_number       1

loop_
  _space_group_symop_operation_xyz
  'x, y, z'

loop_
  _atom_site_type_symbol
  _atom_site_label
  _atom_site_symmetry_multiplicity
  _atom_site_fract_x
  _atom_site_fract_y
  _atom_site_fract_z
  _atom_site_occupancy
  Ba  Ba1       1.0  0.9153960753860473  0.8354203496524637  0.7512021570551739  1.0000
  O   O1        1.0  0.5421225365937583  0.9613705117388993  0.0032957915589221353  1.0000
  Ba  Ba2       1.0  0.16864149083345115  0.08729349591630563  0.2554001048819593  1.0000
  Ti  Ti1       1.0  0.542225052506013  0.46139017191861226  0.0033342603237431784  1.0000
  O   O2        1.0  0.4371710204817692  0.35679365967957677  0.7938752852772771  1.0000
  O   O3        1.0  0.6470153967345287  0.5659752825413584  0.21279364373178983  1.0000
