data_image378
_chemical_formula_structural       BaO2Ti
_chemical_formula_sum              "Ba1 O2 Ti1"
_cell_length_a       4.089797602368839
_cell_length_b       4.091830307408035
_cell_length_c       6.739809989929198
_cell_angle_alpha    72.29215533330141
_cell_angle_beta     72.31753788286747
_cell_angle_gamma    59.974183885116176

_space_group_name_H-M_alt    "P 1"
_space_group_IT_number       1

loop_
  _space_group_symop_operation_xyz
  'x, y, z'

loop_
  _atom_site_type_symbol
  _atom_site_label
  _atom_site_symmetry_multiplicity
  _atom_site_fract_x
  _atom_site_fract_y
  _atom_site_fract_z
  _atom_site_occupancy
  Ba  Ba1       1.0  0.5483446164779197  0.07549793465081119  0.3779591517717629  1.0000
  O   O1        1.0  0.9509813172114605  0.47841911029767475  0.1701193194830886  1.0000
  O   O2        1.0  0.14572559400952997  0.6725683890969348  0.5857335595970992  1.0000
  Ti  Ti1       1.0  0.04814169493578444  0.5752145100981906  0.8779281766693303  1.0000
