data_image234
_chemical_formula_structural       Ba2OBaTiO2TiO3
_chemical_formula_sum              "Ba3 O6 Ti2"
_cell_length_a       4.034865548389721
_cell_length_b       4.034386002230667
_cell_length_c       11.27872371673584
_cell_angle_alpha    100.23436486881124
_cell_angle_beta     79.76004668648869
_cell_angle_gamma    89.9801196517933

_space_group_name_H-M_alt    "P 1"
_space_group_IT_number       1

loop_
  _space_group_symop_operation_xyz
  'x, y, z'

loop_
  _atom_site_type_symbol
  _atom_site_label
  _atom_site_symmetry_multiplicity
  _atom_site_fract_x
  _atom_site_fract_y
  _atom_site_fract_z
  _atom_site_occupancy
  Ba  Ba1       1.0  0.5011599188679554  0.7550696410141771  0.2521808171610073  1.0000
  Ba  Ba2       1.0  0.684105590818085  0.5721193352859255  0.8858345484431294  1.0000
  O   O1        1.0  0.9096561869260347  0.8467326411409353  0.4353697219920335  1.0000
  Ba  Ba3       1.0  0.3181775157980715  0.938018871213716  0.6185393585847649  1.0000
  Ti  Ti1       1.0  0.9004265262953431  0.35581040674039216  0.4537239204334428  1.0000
  O   O2        1.0  0.19015469097005494  0.06607473871914703  0.8737342180371221  1.0000
  O   O3        1.0  0.812147698242974  0.44406686804765344  0.6306161291042358  1.0000
  Ti  Ti2       1.0  0.10188814212947224  0.1543532423654076  0.05063695022021647  1.0000
  O   O4        1.0  0.09268488163710671  0.663427771378307  0.068950416085476  1.0000
  O   O5        1.0  0.5927908086712143  0.16359951130773506  0.06899530889481309  1.0000
  O   O6        1.0  0.40950359516068546  0.3466179731633421  0.4354188998677139  1.0000
