data_image1037
_chemical_formula_structural       Ba2OTiBaO6Ti
_chemical_formula_sum              "Ba3 O7 Ti2"
_cell_length_a       3.981636359868442
_cell_length_b       4.053536795498712
_cell_length_c       11.536206245422362
_cell_angle_alpha    100.05874061097126
_cell_angle_beta     89.95018993651271
_cell_angle_gamma    89.92783472361228

_space_group_name_H-M_alt    "P 1"
_space_group_IT_number       1

loop_
  _space_group_symop_operation_xyz
  'x, y, z'

loop_
  _atom_site_type_symbol
  _atom_site_label
  _atom_site_symmetry_multiplicity
  _atom_site_fract_x
  _atom_site_fract_y
  _atom_site_fract_z
  _atom_site_occupancy
  Ba  Ba1       1.0  0.9058843929805986  0.38311053807862566  0.5744506575716861  1.0000
  Ba  Ba2       1.0  0.9073206214344655  0.036176898856267604  0.8789042582786238  1.0000
  O   O1        1.0  0.40568821055358795  0.8855031340305171  0.5800401768486197  1.0000
  Ti  Ti1       1.0  0.40658864308015363  0.619604405139332  0.045128307217402394  1.0000
  Ba  Ba3       1.0  0.9066412656969204  0.20966379056351941  0.22665734080065364  1.0000
  O   O2        1.0  0.40640045599301616  0.299723678877406  0.40800254977864064  1.0000
  O   O3        1.0  0.40757559716471237  0.533387871555625  0.8734229825742555  1.0000
  O   O4        1.0  0.9070517371332621  0.6191236243294949  0.04596969314407592  1.0000
  O   O5        1.0  0.9062181311407381  0.7996271259018461  0.40745176359388574  1.0000
  O   O6        1.0  0.40682037154493195  0.11848680560766492  0.04523976766559575  1.0000
  O   O7        1.0  0.4065539101084783  0.7093105315643993  0.22669550861154728  1.0000
  Ti  Ti2       1.0  0.40644936452576796  0.8004933041345054  0.4083286961508661  1.0000
