data_image62
_chemical_formula_structural       TiBaTiBaOBa2O7
_chemical_formula_sum              "Ti2 Ba4 O8"
_cell_length_a       6.223012817883406
_cell_length_b       6.230306544688098
_cell_length_c       7.537072658538818
_cell_angle_alpha    109.4282291160099
_cell_angle_beta     89.97009993484383
_cell_angle_gamma    89.89720131664807

_space_group_name_H-M_alt    "P 1"
_space_group_IT_number       1

loop_
  _space_group_symop_operation_xyz
  'x, y, z'

loop_
  _atom_site_type_symbol
  _atom_site_label
  _atom_site_symmetry_multiplicity
  _atom_site_fract_x
  _atom_site_fract_y
  _atom_site_fract_z
  _atom_site_occupancy
  Ti  Ti1       1.0  0.018166430742628095  0.18475889503617257  0.4130967963398162  1.0000
  Ba  Ba1       1.0  0.017960761998414426  0.7240317710372689  0.7770674986624222  1.0000
  Ti  Ti2       1.0  0.5181357275672397  0.6807296129193373  0.0073068312776825945  1.0000
  Ba  Ba2       1.0  0.5186711837023095  0.2429598964351891  0.181536139586098  1.0000
  O   O1        1.0  0.5185506425964763  0.8379147115513935  0.2589384169579998  1.0000
  Ba  Ba3       1.0  0.5184897570510542  0.14190427741030703  0.6435178655216078  1.0000
  Ba  Ba4       1.0  0.01748538732544541  0.6224482886985678  0.23884016650866782  1.0000
  O   O2        1.0  0.01762976992085632  0.9876293107164686  0.5502152643173883  1.0000
  O   O3        1.0  0.017747200941554526  0.027570282028098726  0.16141335743508647  1.0000
  O   O4        1.0  0.788915260605418  0.3802913355449036  0.46920473940181473  1.0000
  O   O5        1.0  0.7472601260425051  0.4849244743573945  0.9511638071627937  1.0000
  O   O6        1.0  0.28902005923936824  0.48588160928184587  0.9513815840586021  1.0000
  O   O7        1.0  0.24719294550445908  0.3797885966804526  0.46893858001134137  1.0000
  O   O8        1.0  0.5187262177965599  0.8778526166570533  0.870163613376163  1.0000
