data_image158
_chemical_formula_structural       TiOTiOTiBaO5
_chemical_formula_sum              "Ti3 O7 Ba1"
_cell_length_a       3.744636354964931
_cell_length_b       5.4831247779832095
_cell_length_c       8.555787086486816
_cell_angle_alpha    104.9585338070372
_cell_angle_beta     102.72950717878061
_cell_angle_gamma    90.09798824292146

_space_group_name_H-M_alt    "P 1"
_space_group_IT_number       1

loop_
  _space_group_symop_operation_xyz
  'x, y, z'

loop_
  _atom_site_type_symbol
  _atom_site_label
  _atom_site_symmetry_multiplicity
  _atom_site_fract_x
  _atom_site_fract_y
  _atom_site_fract_z
  _atom_site_occupancy
  Ti  Ti1       1.0  0.4408371016365615  0.7710732318058683  0.0037996569017289274  1.0000
  O   O1        1.0  0.1452267940603142  0.9848214507904294  0.41165690909297986  1.0000
  Ti  Ti2       1.0  0.7956675469262569  0.5141654867127136  0.7143463450605455  1.0000
  O   O2        1.0  0.31599669683083403  0.609515092078684  0.7549521100443263  1.0000
  Ti  Ti3       1.0  0.6626589960200695  0.9101778962334797  0.44678504380087086  1.0000
  Ba  Ba1       1.0  0.06044377139456727  0.3695836946603975  0.24302073765511645  1.0000
  O   O3        1.0  0.463024621032754  0.09927015123935463  0.048836565579959995  1.0000
  O   O4        1.0  0.693552839525037  0.6171579526377281  0.510648197794248  1.0000
  O   O5        1.0  0.9193850685405455  0.648950695815676  0.9611546735628606  1.0000
  O   O6        1.0  0.5452425698796639  0.707016668727774  0.21226159418415433  1.0000
  O   O7        1.0  0.7632570010681452  0.18273901719520796  0.6478095715439702  1.0000
