data_image464
_chemical_formula_structural       BaTiBa2O2TiO5
_chemical_formula_sum              "Ba3 Ti2 O7"
_cell_length_a       4.0691112985606885
_cell_length_b       4.074316087066358
_cell_length_c       11.04633617401123
_cell_angle_alpha    100.8672228619827
_cell_angle_beta     100.84130239670827
_cell_angle_gamma    90.0579908176104

_space_group_name_H-M_alt    "P 1"
_space_group_IT_number       1

loop_
  _space_group_symop_operation_xyz
  'x, y, z'

loop_
  _atom_site_type_symbol
  _atom_site_label
  _atom_site_symmetry_multiplicity
  _atom_site_fract_x
  _atom_site_fract_y
  _atom_site_fract_z
  _atom_site_occupancy
  Ba  Ba1       1.0  0.22330037258890345  0.24842425611162028  0.6849713686631498  1.0000
  Ti  Ti1       1.0  0.805594309618506  0.8302945254898664  0.8747598108514372  1.0000
  Ba  Ba2       1.0  0.4081902186117794  0.4332013554219404  0.05143903117414146  1.0000
  Ba  Ba3       1.0  0.03947755366338964  0.06480103866293095  0.31843867421919586  1.0000
  O   O1        1.0  0.7402387954423553  0.7658003558243076  0.6849584614487597  1.0000
  O   O2        1.0  0.1506556605904331  0.6652806243152936  0.4959905664392554  1.0000
  Ti  Ti2       1.0  0.6151485866905404  0.6399384130714004  0.4951503593470364  1.0000
  O   O3        1.0  0.8291253384264319  0.3662315633100735  0.87381675526933  1.0000
  O   O4        1.0  0.5497156519853629  0.5755136467204677  0.3118033818611814  1.0000
  O   O5        1.0  0.3405451640963293  0.8545068639691095  0.8738142441576906  1.0000
  O   O6        1.0  0.9264565664189673  0.951688451566513  0.05800186717141653  1.0000
  O   O7        1.0  0.639414052759186  0.1767916096528548  0.49595466982906455  1.0000
