data_image210
_chemical_formula_structural       BaTi2OTiO5BaO
_chemical_formula_sum              "Ba2 Ti3 O7"
_cell_length_a       3.871456071862903
_cell_length_b       4.8347463726813515
_cell_length_c       9.640576362609863
_cell_angle_alpha    80.02369177978531
_cell_angle_beta     80.55148078419681
_cell_angle_gamma    85.78156861637576

_space_group_name_H-M_alt    "P 1"
_space_group_IT_number       1

loop_
  _space_group_symop_operation_xyz
  'x, y, z'

loop_
  _atom_site_type_symbol
  _atom_site_label
  _atom_site_symmetry_multiplicity
  _atom_site_fract_x
  _atom_site_fract_y
  _atom_site_fract_z
  _atom_site_occupancy
  Ba  Ba1       1.0  0.9353894958719623  0.32813213589312007  0.3940041448013119  1.0000
  Ti  Ti1       1.0  0.19945972657693745  0.6363529493457553  0.014650337219443343  1.0000
  Ti  Ti2       1.0  0.37463003624171753  0.8046944887779048  0.596911061634822  1.0000
  O   O1        1.0  0.43199491607089563  0.863642306278937  0.3864226430594068  1.0000
  Ti  Ti3       1.0  0.5082463292207094  0.9129309241781689  0.17708082144640053  1.0000
  O   O2        1.0  0.3602813831607454  0.18017740333040266  0.6043378910949818  1.0000
  O   O3        1.0  0.8626574845996893  0.7105148998790994  0.5893571125274463  1.0000
  O   O4        1.0  0.35290221453664805  0.27590390855970964  0.09616315304776304  1.0000
  O   O5        1.0  0.015713542717436288  0.7867503430933962  0.19448862904755093  1.0000
  O   O6        1.0  0.690489490060571  0.7638031309871623  0.9927316168345767  1.0000
  Ba  Ba2       1.0  0.7938596290446458  0.2525866385880069  0.8053707017620774  1.0000
  O   O7        1.0  0.2731148987535877  0.6512243640571439  0.802403129030626  1.0000
