data_image42
_chemical_formula_structural       TiOBaTiOBaO4
_chemical_formula_sum              "Ti2 O6 Ba2"
_cell_length_a       5.703683194233373
_cell_length_b       5.707004967646005
_cell_length_c       5.706470012664795
_cell_angle_alpha    60.107046265814894
_cell_angle_beta     60.05293623182899
_cell_angle_gamma    60.09847909249453

_space_group_name_H-M_alt    "P 1"
_space_group_IT_number       1

loop_
  _space_group_symop_operation_xyz
  'x, y, z'

loop_
  _atom_site_type_symbol
  _atom_site_label
  _atom_site_symmetry_multiplicity
  _atom_site_fract_x
  _atom_site_fract_y
  _atom_site_fract_z
  _atom_site_occupancy
  Ti  Ti1       1.0  0.8098809294207215  0.9187558041858983  0.3641894699647061  1.0000
  O   O1        1.0  0.5599003921686265  0.16860892092747068  0.613848545731894  1.0000
  Ba  Ba1       1.0  0.5598285273277032  0.6686914727097426  0.1139389677257968  1.0000
  Ti  Ti2       1.0  0.30990489635242136  0.4187529532463756  0.864179935107498  1.0000
  O   O2        1.0  0.5598700895561953  0.6686672033759368  0.6140604420732843  1.0000
  Ba  Ba2       1.0  0.059730538855971634  0.16872062843508556  0.613903774664294  1.0000
  O   O3        1.0  0.059885023781578804  0.6687394410693875  0.6137259090062493  1.0000
  O   O4        1.0  0.05982526418521141  0.6687017446801197  0.11387416748850836  1.0000
  O   O5        1.0  0.5599641328996072  0.1686210207231152  0.11389794442860844  1.0000
  O   O6        1.0  0.05986874982726573  0.16878318039046564  0.113742454758305  1.0000
