data_image315
_chemical_formula_structural       Ba3O2TiO4TiBa
_chemical_formula_sum              "Ba4 O6 Ti2"
_cell_length_a       3.98092364285415
_cell_length_b       3.981973723287599
_cell_length_c       15.782635688781738
_cell_angle_alpha    97.180900867438
_cell_angle_beta     97.18131781980867
_cell_angle_gamma    90.0119552989423

_space_group_name_H-M_alt    "P 1"
_space_group_IT_number       1

loop_
  _space_group_symop_operation_xyz
  'x, y, z'

loop_
  _atom_site_type_symbol
  _atom_site_label
  _atom_site_symmetry_multiplicity
  _atom_site_fract_x
  _atom_site_fract_y
  _atom_site_fract_z
  _atom_site_occupancy
  Ba  Ba1       1.0  0.7599962170097406  0.7948416766291164  0.2881414898095653  1.0000
  Ba  Ba2       1.0  0.49871367408619827  0.5346878460138944  0.7624314524606314  1.0000
  Ba  Ba3       1.0  0.630276590633785  0.6655609904076036  0.026592248436483057  1.0000
  O   O1        1.0  0.5598312267175051  0.09536268269598963  0.8848106589768521  1.0000
  O   O2        1.0  0.19562188409834436  0.7309984474294533  0.15903621617570937  1.0000
  Ti  Ti1       1.0  0.06742192057732144  0.10302432622436122  0.9002616279989532  1.0000
  O   O3        1.0  0.12797964038438367  0.16328811241696728  0.02183710735650232  1.0000
  O   O4        1.0  0.6957642491317914  0.2308165886216787  0.15901431094018542  1.0000
  O   O5        1.0  0.059702476894571276  0.5953872095824755  0.8848156817852906  1.0000
  O   O6        1.0  0.25849502328176005  0.2935867457200277  0.2848529555339209  1.0000
  Ti  Ti2       1.0  0.1989579413835653  0.23380482890072096  0.16460121209256504  1.0000
  Ba  Ba4       1.0  0.9129704858178558  0.9360545478023597  0.5597659414120504  1.0000
