data_image488
_chemical_formula_structural       Ba2O2BaTiO4TiO3TiBaTiO3
_chemical_formula_sum              "Ba4 O12 Ti4"
_cell_length_a       3.771665279626488
_cell_length_b       6.138313067436293
_cell_length_c       13.70898723602295
_cell_angle_alpha    95.8304431248928
_cell_angle_beta     89.94321630589074
_cell_angle_gamma    89.98347344677873

_space_group_name_H-M_alt    "P 1"
_space_group_IT_number       1

loop_
  _space_group_symop_operation_xyz
  'x, y, z'

loop_
  _atom_site_type_symbol
  _atom_site_label
  _atom_site_symmetry_multiplicity
  _atom_site_fract_x
  _atom_site_fract_y
  _atom_site_fract_z
  _atom_site_occupancy
  Ba  Ba1       1.0  0.7401787521166725  0.8799187991630847  0.25803469721675226  1.0000
  Ba  Ba2       1.0  0.7395981452350618  0.3817531821521851  0.4677183820874743  1.0000
  O   O1        1.0  0.2412068777235831  0.5635613687472314  0.9395040490382385  1.0000
  O   O2        1.0  0.7407759453701949  0.830095357496865  0.05806747604045698  1.0000
  Ba  Ba3       1.0  0.7413318309805634  0.7791593213039328  0.8254720578332558  1.0000
  Ti  Ti1       1.0  0.2410899499458662  0.848501677155024  0.5881702803163658  1.0000
  O   O3        1.0  0.24061232128876217  0.6179300461908488  0.1609526842846092  1.0000
  O   O4        1.0  0.24219904551582733  0.003269924455469031  0.7318640383067205  1.0000
  O   O5        1.0  0.7402354820151735  0.44549475523714566  0.2758423525143319  1.0000
  O   O6        1.0  0.24021258860958547  0.19811117754964808  0.35278338131494863  1.0000
  Ti  Ti2       1.0  0.24024738087820824  0.36835958391228807  0.24515074749459242  1.0000
  O   O7        1.0  0.2389868790702548  0.16560792424650106  0.5713710289188927  1.0000
  O   O8        1.0  0.7424145693667931  0.34343725960217125  0.7384001391776962  1.0000
  O   O9        1.0  0.24049994911584324  0.14047167622422957  0.15244352184800355  1.0000
  Ti  Ti3       1.0  0.2408229801376298  0.7985003005444807  0.03323094769809491  1.0000
  Ba  Ba4       1.0  0.7408403577963691  0.30121758999521486  0.023590236602845854  1.0000
  Ti  Ti4       1.0  0.23913433148982863  0.2869172930867844  0.700463142681456  1.0000
  O   O10       1.0  0.2432771173927512  0.5963824562878259  0.6509435615523792  1.0000
  O   O11       1.0  0.23960427470620513  0.7306275994912325  0.4653112461041798  1.0000
  O   O12       1.0  0.24109548721713236  0.009884037069712885  0.9445855813470875  1.0000
