data_image273
_chemical_formula_structural       Ba2TiBaO6
_chemical_formula_sum              "Ba3 Ti1 O6"
_cell_length_a       6.166578732462954
_cell_length_b       6.170956396407462
_cell_length_c       6.3919196128845215
_cell_angle_alpha    61.760441002137185
_cell_angle_beta     61.8020988689454
_cell_angle_gamma    60.4609167075079

_space_group_name_H-M_alt    "P 1"
_space_group_IT_number       1

loop_
  _space_group_symop_operation_xyz
  'x, y, z'

loop_
  _atom_site_type_symbol
  _atom_site_label
  _atom_site_symmetry_multiplicity
  _atom_site_fract_x
  _atom_site_fract_y
  _atom_site_fract_z
  _atom_site_occupancy
  Ba  Ba1       1.0  0.3378092936946593  0.3993499075283595  0.9668904656840213  1.0000
  Ba  Ba2       1.0  0.09088922300302642  0.14459932838097467  0.6933901604164003  1.0000
  Ti  Ti1       1.0  0.6259388884105785  0.6385850624362199  0.1456584426869527  1.0000
  Ba  Ba3       1.0  0.8813028054136249  0.8852202253727854  0.40230925158918945  1.0000
  O   O1        1.0  0.883652563030147  0.4742181382476593  0.3298079135341977  1.0000
  O   O2        1.0  0.7698451296181412  0.8898373249919924  0.8978411993516021  1.0000
  O   O3        1.0  0.31429010379702665  0.8074895610249586  0.031075196197356086  1.0000
  O   O4        1.0  0.7552272377343499  0.35077135044405056  0.04080208800592829  1.0000
  O   O5        1.0  0.33218115827004013  0.5073861459782907  0.5170704040150227  1.0000
  O   O6        1.0  0.3427534539180561  0.7632999570684397  0.474705644956498  1.0000
