data_image494
_chemical_formula_structural       TiBaOBaO3TiOBaO2
_chemical_formula_sum              "Ti2 Ba3 O7"
_cell_length_a       3.962724974699603
_cell_length_b       4.04109103868506
_cell_length_c       11.466078758239746
_cell_angle_alpha    100.17180037547793
_cell_angle_beta     90.03562194107808
_cell_angle_gamma    90.02848439342358

_space_group_name_H-M_alt    "P 1"
_space_group_IT_number       1

loop_
  _space_group_symop_operation_xyz
  'x, y, z'

loop_
  _atom_site_type_symbol
  _atom_site_label
  _atom_site_symmetry_multiplicity
  _atom_site_fract_x
  _atom_site_fract_y
  _atom_site_fract_z
  _atom_site_occupancy
  Ti  Ti1       1.0  0.4822863999426627  0.5016570445914782  0.5424073572875024  1.0000
  Ba  Ba1       1.0  0.9824963793821149  0.91043378167369  0.3591796064731892  1.0000
  O   O1        1.0  0.48201547309767856  0.2322115903356874  0.002488025203200763  1.0000
  Ba  Ba2       1.0  0.9828269154786979  0.08606860009722196  0.7103645607036501  1.0000
  O   O2        1.0  0.9823070303142709  0.31939507808918577  0.1767324543846037  1.0000
  O   O3        1.0  0.4823149721444411  0.8192608497398753  0.17626777531927945  1.0000
  O   O4        1.0  0.48276926549976457  0.0022666768364672184  0.5421035326783044  1.0000
  Ti  Ti2       1.0  0.48257760181664294  0.31865737673897065  0.17594035931620886  1.0000
  O   O5        1.0  0.9829150865511066  0.5018910910393227  0.5416504169848163  1.0000
  Ba  Ba3       1.0  0.9821532304278812  0.7347426419616603  0.007943751924563916  1.0000
  O   O6        1.0  0.4831691028370371  0.5890127024677553  0.7159179413166962  1.0000
  O   O7        1.0  0.4825866650403426  0.41065219709814316  0.3592264453307193  1.0000
