data_image434
_chemical_formula_structural       OBa2TiO2BaOTiO3TiO3
_chemical_formula_sum              "O10 Ba3 Ti3"
_cell_length_a       3.9175378184786394
_cell_length_b       3.9195573928985494
_cell_length_c       15.406429290771484
_cell_angle_alpha    89.98998261736499
_cell_angle_beta     90.0426023970244
_cell_angle_gamma    90.0455940201247

_space_group_name_H-M_alt    "P 1"
_space_group_IT_number       1

loop_
  _space_group_symop_operation_xyz
  'x, y, z'

loop_
  _atom_site_type_symbol
  _atom_site_label
  _atom_site_symmetry_multiplicity
  _atom_site_fract_x
  _atom_site_fract_y
  _atom_site_fract_z
  _atom_site_occupancy
  O   O1        1.0  0.3706292490184858  0.4537843932150268  0.4336677167537736  1.0000
  Ba  Ba1       1.0  0.877242495446701  0.4524929885216683  0.8595910084735494  1.0000
  Ba  Ba2       1.0  0.7605152482872893  0.4526996545641944  0.21581316668687872  1.0000
  Ti  Ti1       1.0  0.36150417376215005  0.95387957858422  0.4121684712407641  1.0000
  O   O2        1.0  0.3902145972451879  0.9533265490822819  0.1275825394467151  1.0000
  O   O3        1.0  0.36976974688297837  0.9531846323408542  0.5780813406246036  1.0000
  Ba  Ba3       1.0  0.8692336333550224  0.4532640538741528  0.564405362910737  1.0000
  O   O4        1.0  0.8681536737089098  0.9537749245516511  0.43414518728707896  1.0000
  Ti  Ti2       1.0  0.37801682701654266  0.9530922674315632  0.012782300166138568  1.0000
  O   O5        1.0  0.36681463198857583  0.9541767099604751  0.2966685496407849  1.0000
  O   O6        1.0  0.8809789957515757  0.9522596929047411  0.9868748854569649  1.0000
  O   O7        1.0  0.3728683702834848  0.4525671970994357  0.7057174417045469  1.0000
  Ti  Ti3       1.0  0.37350464376730236  0.9525684328710029  0.7126367996099403  1.0000
  O   O8        1.0  0.3756120740052454  0.9525030167447199  0.8336697433379203  1.0000
  O   O9        1.0  0.3819100082739116  0.4524405352268321  0.9876475285656412  1.0000
  O   O10       1.0  0.8730090182196472  0.9523687709851988  0.7056510873009757  1.0000
