data_image65
_chemical_formula_structural       BaOTiOBaTiO2BaO3
_chemical_formula_sum              "Ba3 O7 Ti2"
_cell_length_a       3.9624099791115492
_cell_length_b       3.9622949000621843
_cell_length_c       12.51345157623291
_cell_angle_alpha    90.0414480923762
_cell_angle_beta     90.00314439146554
_cell_angle_gamma    90.01152503313618

_space_group_name_H-M_alt    "P 1"
_space_group_IT_number       1

loop_
  _space_group_symop_operation_xyz
  'x, y, z'

loop_
  _atom_site_type_symbol
  _atom_site_label
  _atom_site_symmetry_multiplicity
  _atom_site_fract_x
  _atom_site_fract_y
  _atom_site_fract_z
  _atom_site_occupancy
  Ba  Ba1       1.0  0.8578163546864592  0.7012844207893651  0.7750562695161111  1.0000
  O   O1        1.0  0.3565716923870077  0.19885800097690723  0.4413614083520843  1.0000
  Ti  Ti1       1.0  0.8405565769692306  0.6836298676448574  0.07523472550704793  1.0000
  O   O2        1.0  0.8550537894639939  0.6973484929004725  0.22181599230038998  1.0000
  Ba  Ba2       1.0  0.8564135975831323  0.6988143329788022  0.4555427017248203  1.0000
  Ti  Ti2       1.0  0.35714774808581196  0.20008371058393482  0.6128378685225859  1.0000
  O   O3        1.0  0.8684950295432744  0.21413724398153489  0.05725648527473115  1.0000
  O   O4        1.0  0.8571071336272003  0.19986519901285868  0.6099400927349174  1.0000
  Ba  Ba3       1.0  0.34999769261357166  0.19313069378068407  0.21973378012310044  1.0000
  O   O5        1.0  0.3720308390608779  0.7106362602846754  0.05755527733622872  1.0000
  O   O6        1.0  0.3573292544936257  0.200513336735034  0.7658088635997291  1.0000
  O   O7        1.0  0.3571183996036008  0.6998565190779498  0.6099364649648172  1.0000
