data_image274
_chemical_formula_structural       Ba2OBaOTiBa2
_chemical_formula_sum              "Ba5 O2 Ti1"
_cell_length_a       3.944601226873626
_cell_length_b       3.945770775772367
_cell_length_c       20.68842315673828
_cell_angle_alpha    90.02134001667699
_cell_angle_beta     89.98328220099003
_cell_angle_gamma    120.0587027605135

_space_group_name_H-M_alt    "P 1"
_space_group_IT_number       1

loop_
  _space_group_symop_operation_xyz
  'x, y, z'

loop_
  _atom_site_type_symbol
  _atom_site_label
  _atom_site_symmetry_multiplicity
  _atom_site_fract_x
  _atom_site_fract_y
  _atom_site_fract_z
  _atom_site_occupancy
  Ba  Ba1       1.0  0.009346882639333698  0.18472936808670337  0.7044672447233248  1.0000
  Ba  Ba2       1.0  0.6803290869523628  0.5193733208285839  0.8936790084161217  1.0000
  O   O1        1.0  0.011069179306587573  0.1858359226498665  0.16235488085215127  1.0000
  Ba  Ba3       1.0  0.6785279523399332  0.5199212764767998  0.23873176594687484  1.0000
  O   O2        1.0  0.19836402100687225  0.27806693330025256  0.5692496402346381  1.0000
  Ti  Ti1       1.0  0.2742304778474211  0.8161027887938469  0.5690960385625294  1.0000
  Ba  Ba4       1.0  0.007431867745299581  0.1814647314375933  0.43380872567810774  1.0000
  Ba  Ba5       1.0  0.34472823773703554  0.8521481539295078  0.08622285177753379  1.0000
