data_image103
_chemical_formula_structural       Ba2O2TiBaTiO4
_chemical_formula_sum              "Ba3 O6 Ti2"
_cell_length_a       4.039651860767257
_cell_length_b       4.032607107735806
_cell_length_c       11.249122619628906
_cell_angle_alpha    100.28805705861693
_cell_angle_beta     100.34432415543314
_cell_angle_gamma    89.99811061819415

_space_group_name_H-M_alt    "P 1"
_space_group_IT_number       1

loop_
  _space_group_symop_operation_xyz
  'x, y, z'

loop_
  _atom_site_type_symbol
  _atom_site_label
  _atom_site_symmetry_multiplicity
  _atom_site_fract_x
  _atom_site_fract_y
  _atom_site_fract_z
  _atom_site_occupancy
  Ba  Ba1       1.0  0.8683831108372356  0.7853703612956868  0.3663641278625398  1.0000
  Ba  Ba2       1.0  0.6900103979475619  0.6072452114513966  0.009642220337002407  1.0000
  O   O1        1.0  0.7782828253379838  0.19544772156690782  0.18618653194312132  1.0000
  O   O2        1.0  0.3754897910993635  0.29247791229157066  0.38053068631413484  1.0000
  Ti  Ti1       1.0  0.46534277531528473  0.3822580037346633  0.5602883254650929  1.0000
  Ba  Ba3       1.0  0.0594283199197402  0.9762993241236144  0.7484303143700662  1.0000
  Ti  Ti2       1.0  0.2764951282786426  0.19363370770421298  0.1825593713120048  1.0000
  O   O3        1.0  0.18553743031708675  0.10297947323835475  0.000670630823607965  1.0000
  O   O4        1.0  0.46617115703422146  0.8830410274638695  0.5619430517863693  1.0000
  O   O5        1.0  0.5552504432880256  0.4719154236997263  0.7400973868329033  1.0000
  O   O6        1.0  0.2777219463759908  0.6948897172043521  0.18504202041169512  1.0000
