data_image1083
_chemical_formula_structural       BaO2TiBa2OTiO4
_chemical_formula_sum              "Ba3 O7 Ti2"
_cell_length_a       4.07487514027788
_cell_length_b       4.077668676111685
_cell_length_c       11.095265388488768
_cell_angle_alpha    100.61713473940688
_cell_angle_beta     100.55556197955184
_cell_angle_gamma    89.8304841138096

_space_group_name_H-M_alt    "P 1"
_space_group_IT_number       1

loop_
  _space_group_symop_operation_xyz
  'x, y, z'

loop_
  _atom_site_type_symbol
  _atom_site_label
  _atom_site_symmetry_multiplicity
  _atom_site_fract_x
  _atom_site_fract_y
  _atom_site_fract_z
  _atom_site_occupancy
  Ba  Ba1       1.0  0.22342537862066614  0.26795687290966447  0.49021619141488154  1.0000
  O   O1        1.0  0.43626020476137767  0.9673263256143768  0.9354288614446836  1.0000
  O   O2        1.0  0.9246578418322379  0.47896825784254277  0.9354692024970472  1.0000
  Ti  Ti1       1.0  0.4610520214445128  0.5047174656774622  0.9347688169745367  1.0000
  Ba  Ba2       1.0  0.8592421869365703  0.9019308960421926  0.7582440806380419  1.0000
  Ba  Ba3       1.0  0.04208212664385486  0.0856161667223997  0.12415387453113605  1.0000
  O   O3        1.0  0.34166063899742405  0.3842996409186175  0.7522248767369778  1.0000
  Ti  Ti2       1.0  0.6494649705707619  0.6944310260167146  0.31374034239982285  1.0000
  O   O4        1.0  0.11196692912401611  0.6677280441253471  0.31291270389573805  1.0000
  O   O5        1.0  0.7113274290654216  0.7563436741678513  0.49630430737910214  1.0000
  O   O6        1.0  0.5245990836957918  0.5683252252675812  0.12427190437060819  1.0000
  O   O7        1.0  0.6234313091272119  0.15624744673805932  0.31292666467194646  1.0000
