data_image341
_chemical_formula_structural       BaTiO2
_chemical_formula_sum              "Ba1 Ti1 O2"
_cell_length_a       3.3121684149093573
_cell_length_b       3.314473560671002
_cell_length_c       6.303031921386719
_cell_angle_alpha    74.79147966732721
_cell_angle_beta     74.79649359705158
_cell_angle_gamma    60.047431030749465

_space_group_name_H-M_alt    "P 1"
_space_group_IT_number       1

loop_
  _space_group_symop_operation_xyz
  'x, y, z'

loop_
  _atom_site_type_symbol
  _atom_site_label
  _atom_site_symmetry_multiplicity
  _atom_site_fract_x
  _atom_site_fract_y
  _atom_site_fract_z
  _atom_site_occupancy
  Ba  Ba1       1.0  0.6428288621249277  0.10860006385274322  0.08256806568660345  1.0000
  Ti  Ti1       1.0  0.14285512334080416  0.6088945351928688  0.5826329807277016  1.0000
  O   O1        1.0  0.8645645966064318  0.3305769951513242  0.4173763168490069  1.0000
  O   O2        1.0  0.42111199561999246  0.8870478032713602  0.7478095505637486  1.0000
