data_image286
_chemical_formula_structural       TiBaOBaO4
_chemical_formula_sum              "Ti1 Ba2 O5"
_cell_length_a       4.009530115618982
_cell_length_b       4.009532050177871
_cell_length_c       8.501495361328125
_cell_angle_alpha    103.59598536107346
_cell_angle_beta     101.01477607389586
_cell_angle_gamma    89.88134155960016

_space_group_name_H-M_alt    "P 1"
_space_group_IT_number       1

loop_
  _space_group_symop_operation_xyz
  'x, y, z'

loop_
  _atom_site_type_symbol
  _atom_site_label
  _atom_site_symmetry_multiplicity
  _atom_site_fract_x
  _atom_site_fract_y
  _atom_site_fract_z
  _atom_site_occupancy
  Ti  Ti1       1.0  0.048773493703130354  0.5792371880919986  0.42014267506325487  1.0000
  Ba  Ba1       1.0  0.6617142665052098  0.2107405681093352  0.6655383560259406  1.0000
  O   O1        1.0  0.0675933245084107  0.09766777142763312  0.4028763619759067  1.0000
  Ba  Ba2       1.0  0.47261079133973466  0.956363884204786  0.1437089569833889  1.0000
  O   O2        1.0  0.5682312757040033  0.5900658155631737  0.3951859067791659  1.0000
  O   O3        1.0  0.9988663997429055  0.46013262513082887  0.1343445309851769  1.0000
  O   O4        1.0  0.718069417804541  0.376307956697392  0.986261549056852  1.0000
  O   O5        1.0  0.16001853796292834  0.71070195130085  0.6468315699677487  1.0000
