data_image217
_chemical_formula_structural       Ba2TiO2TiO4
_chemical_formula_sum              "Ba2 Ti2 O6"
_cell_length_a       6.174037557590668
_cell_length_b       5.4464115974688445
_cell_length_c       6.0023698806762695
_cell_angle_alpha    65.29871938352792
_cell_angle_beta     73.07464283122684
_cell_angle_gamma    61.91763736382071

_space_group_name_H-M_alt    "P 1"
_space_group_IT_number       1

loop_
  _space_group_symop_operation_xyz
  'x, y, z'

loop_
  _atom_site_type_symbol
  _atom_site_label
  _atom_site_symmetry_multiplicity
  _atom_site_fract_x
  _atom_site_fract_y
  _atom_site_fract_z
  _atom_site_occupancy
  Ba  Ba1       1.0  0.05246421844185947  0.9051941127203134  0.9911505364584727  1.0000
  Ba  Ba2       1.0  0.33527830127058167  0.12072804472895927  0.27580103377422377  1.0000
  Ti  Ti1       1.0  0.7696258130591871  0.6873408085238315  0.7093628808993958  1.0000
  O   O1        1.0  0.9094690800849147  0.3867564757225497  0.5310585070890231  1.0000
  O   O2        1.0  0.9889520104991117  0.4682267180738422  0.9315219643847257  1.0000
  Ti  Ti2       1.0  0.6181861813407066  0.33859977971888316  0.5575240872793271  1.0000
  O   O3        1.0  0.478366257819963  0.6391511752136702  0.7358959901339076  1.0000
  O   O4        1.0  0.3988772160812056  0.5576192710194556  0.3353568692307718  1.0000
  O   O5        1.0  0.8001260973679202  0.9971901685974294  0.41929530638345947  1.0000
  O   O6        1.0  0.5875769608784698  0.028807027589042734  0.8475635656079388  1.0000
