data_image98
_chemical_formula_structural       Ba3TiOBa3O8BaTiO2
_chemical_formula_sum              "Ba7 Ti2 O11"
_cell_length_a       6.552243854553679
_cell_length_b       6.66327430752314
_cell_length_c       10.34228992462158
_cell_angle_alpha    75.29224745126665
_cell_angle_beta     80.6866433978536
_cell_angle_gamma    77.61566106755963

_space_group_name_H-M_alt    "P 1"
_space_group_IT_number       1

loop_
  _space_group_symop_operation_xyz
  'x, y, z'

loop_
  _atom_site_type_symbol
  _atom_site_label
  _atom_site_symmetry_multiplicity
  _atom_site_fract_x
  _atom_site_fract_y
  _atom_site_fract_z
  _atom_site_occupancy
  Ba  Ba1       1.0  0.17198311036207262  0.3233299497254534  0.14282186711611883  1.0000
  Ba  Ba2       1.0  0.12947382166098445  0.8497911241539968  0.9554148925930841  1.0000
  Ba  Ba3       1.0  0.6713404043062601  0.8933818859602031  0.7484694469059697  1.0000
  Ti  Ti1       1.0  0.10806183546011983  0.12575415307621188  0.5751561975575429  1.0000
  O   O1        1.0  0.36516539240008067  0.624664953707551  0.19310307544556307  1.0000
  Ba  Ba4       1.0  0.020057374809292348  0.7605115552736895  0.3415076221697724  1.0000
  Ba  Ba5       1.0  0.6320681682966998  0.28712037307531296  0.34681953105265545  1.0000
  Ba  Ba6       1.0  0.23528304091736027  0.5050104423487705  0.7004028668329726  1.0000
  O   O2        1.0  0.0009490858122708061  0.33102725355604135  0.4360536865060668  1.0000
  O   O3        1.0  0.9648909389408317  0.5909422898778083  0.8810926443369405  1.0000
  O   O4        1.0  0.4376594954691735  0.6147094495697308  0.8434869801340121  1.0000
  O   O5        1.0  0.9016816410184573  0.11064356523080116  0.1731306319592956  1.0000
  O   O6        1.0  0.38429683656556435  0.14489090631486246  0.5801168285613677  1.0000
  O   O7        1.0  0.5086573501409895  0.9919999524522473  0.9850606446565929  1.0000
  O   O8        1.0  0.9744890236606233  0.16286507172301942  0.7430787688993398  1.0000
  O   O9        1.0  0.4419172970664798  0.0015436465076139605  0.26762089125540683  1.0000
  Ba  Ba7       1.0  0.7220404756943609  0.3283051394017221  0.9480393295162927  1.0000
  Ti  Ti2       1.0  0.5452208321625577  0.8225355138888063  0.15634181537750785  1.0000
  O   O10       1.0  0.047439640103462216  0.8712515565492482  0.5649039418009183  1.0000
  O   O11       1.0  0.8036788266785553  0.6530343098459779  0.1841887284136371  1.0000
