data_image66
_chemical_formula_structural       Ba2OTiO2BaO2TiO2
_chemical_formula_sum              "Ba3 O7 Ti2"
_cell_length_a       4.069530578623329
_cell_length_b       4.070646432945812
_cell_length_c       11.121822357177734
_cell_angle_alpha    100.51569254706281
_cell_angle_beta     100.48390619817131
_cell_angle_gamma    89.99005787720604

_space_group_name_H-M_alt    "P 1"
_space_group_IT_number       1

loop_
  _space_group_symop_operation_xyz
  'x, y, z'

loop_
  _atom_site_type_symbol
  _atom_site_label
  _atom_site_symmetry_multiplicity
  _atom_site_fract_x
  _atom_site_fract_y
  _atom_site_fract_z
  _atom_site_occupancy
  Ba  Ba1       1.0  0.305006710464414  0.5367034191843418  0.49446328798324973  1.0000
  Ba  Ba2       1.0  0.4934626340711444  0.7205385779325729  0.8602718700476529  1.0000
  O   O1        1.0  0.8048472035377496  0.05322549380670139  0.4944706326750039  1.0000
  Ti  Ti1       1.0  0.690862084242096  0.9287439641197539  0.3050196640185487  1.0000
  O   O2        1.0  0.3852463009098039  0.1432658341618402  0.6833601225333785  1.0000
  O   O3        1.0  0.9837253128092184  0.23697932166640334  0.8661329722980039  1.0000
  Ba  Ba3       1.0  0.11632448926254782  0.35484617538401897  0.12866121570445127  1.0000
  O   O4        1.0  0.22445396758413907  0.9543609703702184  0.3056071223179812  1.0000
  O   O5        1.0  0.8946133268920796  0.6541972184402925  0.6831919851063333  1.0000
  Ti  Ti2       1.0  0.9189963231388757  0.11827560402309546  0.683921316466757  1.0000
  O   O6        1.0  0.7151908105548143  0.465534746387141  0.3057640482877832  1.0000
  O   O7        1.0  0.6258697859881651  0.8657662391393852  0.12280187850986699  1.0000
