data_image477
_chemical_formula_structural       O2Ba2TiO2BaTiOBaO
_chemical_formula_sum              "O6 Ba4 Ti2"
_cell_length_a       4.047294683698908
_cell_length_b       4.0481147954877565
_cell_length_c       14.683116912841797
_cell_angle_alpha    90.05589394356046
_cell_angle_beta     90.01042537324562
_cell_angle_gamma    90.00448993873043

_space_group_name_H-M_alt    "P 1"
_space_group_IT_number       1

loop_
  _space_group_symop_operation_xyz
  'x, y, z'

loop_
  _atom_site_type_symbol
  _atom_site_label
  _atom_site_symmetry_multiplicity
  _atom_site_fract_x
  _atom_site_fract_y
  _atom_site_fract_z
  _atom_site_occupancy
  O   O1        1.0  0.5227841027397953  0.6661644946600073  0.7065411329824122  1.0000
  O   O2        1.0  0.022882476838505538  0.6665361006375575  0.8513660895969876  1.0000
  Ba  Ba1       1.0  0.02279197146028387  0.16624813938467484  0.713653437949964  1.0000
  Ba  Ba2       1.0  0.022959747938766033  0.16676250551999122  0.984104116734625  1.0000
  Ti  Ti1       1.0  0.5228731568759899  0.6665219566110554  0.8396241826788133  1.0000
  O   O3        1.0  0.02270047389184715  0.1663208835282135  0.522496411543742  1.0000
  O   O4        1.0  0.0226881182415099  0.6659460297754283  0.3776932339709508  1.0000
  Ba  Ba3       1.0  0.522716213238566  0.6662478374963537  0.5153807839194313  1.0000
  Ti  Ti2       1.0  0.0226874133133501  0.16601772254701  0.38941212960621646  1.0000
  O   O5        1.0  0.522664072098132  0.16600505655377232  0.37766312406515645  1.0000
  Ba  Ba4       1.0  0.5227361660055965  0.6658618255401131  0.24492288412567395  1.0000
  O   O6        1.0  0.522885552356111  0.1665811953470531  0.8513406069445941  1.0000
