data_image280
_chemical_formula_structural       OBa2O2TiBaTiO4
_chemical_formula_sum              "O7 Ba3 Ti2"
_cell_length_a       3.9969479739000637
_cell_length_b       4.00277534542751
_cell_length_c       13.166258811950684
_cell_angle_alpha    89.9841496339136
_cell_angle_beta     89.76511230355901
_cell_angle_gamma    89.83034743633648

_space_group_name_H-M_alt    "P 1"
_space_group_IT_number       1

loop_
  _space_group_symop_operation_xyz
  'x, y, z'

loop_
  _atom_site_type_symbol
  _atom_site_label
  _atom_site_symmetry_multiplicity
  _atom_site_fract_x
  _atom_site_fract_y
  _atom_site_fract_z
  _atom_site_occupancy
  O   O1        1.0  0.4434050727412152  0.28875864170623483  0.12308226506566909  1.0000
  Ba  Ba1       1.0  0.4447200853796161  0.7891612605908663  0.9755771038905542  1.0000
  Ba  Ba2       1.0  0.44141343554084334  0.7893425595236216  0.2806443013774237  1.0000
  O   O2        1.0  0.9415067924810487  0.288968003069888  0.28069157629075603  1.0000
  O   O3        1.0  0.937755505389821  0.28889061648528036  0.585738599821199  1.0000
  Ti  Ti1       1.0  0.9399465691078106  0.2903635480359301  0.43868187642942885  1.0000
  Ba  Ba3       1.0  0.4379662345110285  0.7897753905739424  0.5859219939884348  1.0000
  Ti  Ti2       1.0  0.9426047461174076  0.28932732946696366  0.12273939757987933  1.0000
  O   O4        1.0  0.4396413514214531  0.28914903659683067  0.4383374296677722  1.0000
  O   O5        1.0  0.9431605293986794  0.7887379763794459  0.1231360573190774  1.0000
  O   O6        1.0  0.9451620694171239  0.2889344579341412  0.9756578268962318  1.0000
  O   O7        1.0  0.9397455449876353  0.7887438492990063  0.4383322320929411  1.0000
