data_image1090
_chemical_formula_structural       Ti2Ba2OTi2
_chemical_formula_sum              "Ti4 Ba2 O1"
_cell_length_a       4.057952687889159
_cell_length_b       4.058622714551214
_cell_length_c       12.30088520050049
_cell_angle_alpha    99.46076458778009
_cell_angle_beta     99.44420102172026
_cell_angle_gamma    89.96044179917916

_space_group_name_H-M_alt    "P 1"
_space_group_IT_number       1

loop_
  _space_group_symop_operation_xyz
  'x, y, z'

loop_
  _atom_site_type_symbol
  _atom_site_label
  _atom_site_symmetry_multiplicity
  _atom_site_fract_x
  _atom_site_fract_y
  _atom_site_fract_z
  _atom_site_occupancy
  Ti  Ti1       1.0  0.11498080955785753  0.3853678422163845  0.8076037685227035  1.0000
  Ti  Ti2       1.0  0.03501669962133704  0.80549588357576  0.6473145825633468  1.0000
  Ba  Ba1       1.0  0.3829710760897155  0.6531760142054867  0.34156901857895294  1.0000
  Ba  Ba2       1.0  0.6874170362171755  0.9578613432680424  0.9536644700438299  1.0000
  O   O1        1.0  0.5348129592648851  0.8052693929504028  0.6469150113586349  1.0000
  Ti  Ti3       1.0  0.9551992305351652  0.2258460781550083  0.48722276273802895  1.0000
  Ti  Ti4       1.0  0.5350003533216104  0.305471862597502  0.6472902076546704  1.0000
