data_image450
_chemical_formula_structural       BaTiBaOTiO4
_chemical_formula_sum              "Ba2 Ti2 O5"
_cell_length_a       4.076490998731432
_cell_length_b       6.000765926801157
_cell_length_c       6.4437432289123535
_cell_angle_alpha    105.44226036107223
_cell_angle_beta     89.98611673093224
_cell_angle_gamma    109.78535822918391

_space_group_name_H-M_alt    "P 1"
_space_group_IT_number       1

loop_
  _space_group_symop_operation_xyz
  'x, y, z'

loop_
  _atom_site_type_symbol
  _atom_site_label
  _atom_site_symmetry_multiplicity
  _atom_site_fract_x
  _atom_site_fract_y
  _atom_site_fract_z
  _atom_site_occupancy
  Ba  Ba1       1.0  0.40365745610369785  0.16751714193539405  0.030622107346063975  1.0000
  Ti  Ti1       1.0  0.9629535590327002  0.2867210562113457  0.6107730470743935  1.0000
  Ba  Ba2       1.0  0.2072616711600738  0.7747080089288336  0.37646513940379345  1.0000
  O   O1        1.0  0.6548083964604803  0.669587729177398  0.08752698987297516  1.0000
  Ti  Ti2       1.0  0.6479547829484901  0.655537238841092  0.796206368928354  1.0000
  O   O2        1.0  0.9561031467749138  0.27264181529157755  0.3194158822689519  1.0000
  O   O3        1.0  0.14641075777367246  0.6524872964192715  0.75757827300089  1.0000
  O   O4        1.0  0.8054702332389106  0.9711213799403389  0.7035119594069139  1.0000
  O   O5        1.0  0.4645135700432967  0.2897556513005699  0.6494982591940719  1.0000
