data_image71
_chemical_formula_structural       O2TiBa2OTiO3
_chemical_formula_sum              "O6 Ti2 Ba2"
_cell_length_a       5.711564655846399
_cell_length_b       5.708366301188924
_cell_length_c       5.714432239532471
_cell_angle_alpha    90.56971540457911
_cell_angle_beta     119.55213471007136
_cell_angle_gamma    119.59734921502445

_space_group_name_H-M_alt    "P 1"
_space_group_IT_number       1

loop_
  _space_group_symop_operation_xyz
  'x, y, z'

loop_
  _atom_site_type_symbol
  _atom_site_label
  _atom_site_symmetry_multiplicity
  _atom_site_fract_x
  _atom_site_fract_y
  _atom_site_fract_z
  _atom_site_occupancy
  O   O1        1.0  0.29812375908926064  0.7357509348059534  0.20819914015348448  1.0000
  O   O2        1.0  0.7861943942457692  0.23516043504200534  0.19636575838539164  1.0000
  Ti  Ti1       1.0  0.32767429696874034  0.009424370450771713  0.9434968636499754  1.0000
  Ba  Ba1       1.0  0.8126361600094478  0.7501294863123907  0.19903778095631827  1.0000
  Ba  Ba2       1.0  0.812633357590203  0.2501313797148639  0.6990335324937846  1.0000
  O   O3        1.0  0.2962497655753104  0.24278310537853837  0.20615693028499057  1.0000
  Ti  Ti2       1.0  0.32767303648056123  0.5094179328235583  0.4434952862947833  1.0000
  O   O4        1.0  0.29625299118590687  0.7427792139524861  0.7061709977563653  1.0000
  O   O5        1.0  0.7861782035581522  0.7351453500851829  0.6963606942203912  1.0000
  O   O6        1.0  0.2981163850787095  0.23573891960250398  0.7081865857521824  1.0000
