data_image431
_chemical_formula_structural       Ba3TiO3TiO3
_chemical_formula_sum              "Ba3 Ti2 O6"
_cell_length_a       4.035420509995079
_cell_length_b       4.036375024291808
_cell_length_c       11.285072326660156
_cell_angle_alpha    100.2325137614314
_cell_angle_beta     100.22204979596246
_cell_angle_gamma    89.97090582497997

_space_group_name_H-M_alt    "P 1"
_space_group_IT_number       1

loop_
  _space_group_symop_operation_xyz
  'x, y, z'

loop_
  _atom_site_type_symbol
  _atom_site_label
  _atom_site_symmetry_multiplicity
  _atom_site_fract_x
  _atom_site_fract_y
  _atom_site_fract_z
  _atom_site_occupancy
  Ba  Ba1       1.0  0.7385741351350429  0.22782989391100225  0.7847380539967255  1.0000
  Ba  Ba2       1.0  0.10465096802821658  0.5938620690124746  0.5177952340656028  1.0000
  Ba  Ba3       1.0  0.9215317989755243  0.4107955474865292  0.15126026001281273  1.0000
  Ti  Ti1       1.0  0.3206039656866754  0.8098932488876806  0.9493749419985381  1.0000
  O   O1        1.0  0.013481259356888086  0.0025083704886724903  0.33473230196154885  1.0000
  O   O2        1.0  0.5133295723267138  0.5026718524824012  0.3347586250105342  1.0000
  O   O3        1.0  0.6106888017401055  0.0999126357939364  0.5299622148366478  1.0000
  Ti  Ti2       1.0  0.5225770646741905  0.011771832505004463  0.35316864588899227  1.0000
  O   O4        1.0  0.8296850922601775  0.8191171738595234  0.9677908150357923  1.0000
  O   O5        1.0  0.23257298986080366  0.7218159952560171  0.7726111804100595  1.0000
  O   O6        1.0  0.3298090729210944  0.31897979908341867  0.9677616439928728  1.0000
