data_image373
_chemical_formula_structural       BaTiO2
_chemical_formula_sum              "Ba1 Ti1 O2"
_cell_length_a       4.098423450990369
_cell_length_b       4.100678538255933
_cell_length_c       6.704431056976318
_cell_angle_alpha    72.20585004461323
_cell_angle_beta     72.22693431280963
_cell_angle_gamma    60.01055585131332

_space_group_name_H-M_alt    "P 1"
_space_group_IT_number       1

loop_
  _space_group_symop_operation_xyz
  'x, y, z'

loop_
  _atom_site_type_symbol
  _atom_site_label
  _atom_site_symmetry_multiplicity
  _atom_site_fract_x
  _atom_site_fract_y
  _atom_site_fract_z
  _atom_site_occupancy
  Ba  Ba1       1.0  0.33311939883200653  0.5164125258171223  0.7902255523889941  1.0000
  Ti  Ti1       1.0  0.8319297217588504  0.015906325103063196  0.2902525464733781  1.0000
  O   O1        1.0  0.9310110660558933  0.11408793069199501  0.9966505010900236  1.0000
  O   O2        1.0  0.735233425221462  0.9188041136266442  0.5838634751723204  1.0000
