data_image222
_chemical_formula_structural       BaTiO2
_chemical_formula_sum              "Ba1 Ti1 O2"
_cell_length_a       3.3153870513861134
_cell_length_b       3.314552717254236
_cell_length_c       6.283576488494872
_cell_angle_alpha    74.73883877871273
_cell_angle_beta     74.72377100613734
_cell_angle_gamma    60.002803571934386

_space_group_name_H-M_alt    "P 1"
_space_group_IT_number       1

loop_
  _space_group_symop_operation_xyz
  'x, y, z'

loop_
  _atom_site_type_symbol
  _atom_site_label
  _atom_site_symmetry_multiplicity
  _atom_site_fract_x
  _atom_site_fract_y
  _atom_site_fract_z
  _atom_site_occupancy
  Ba  Ba1       1.0  0.9569165045706188  0.2399769552049026  0.009036456140729707  1.0000
  Ti  Ti1       1.0  0.45673752454427646  0.7395650190908558  0.5091574361633571  1.0000
  O   O1        1.0  0.17863134482862156  0.46150170273554353  0.34364453863416805  1.0000
  O   O2        1.0  0.7349371844420335  0.017895591139646793  0.6745323201814074  1.0000
