data_image75
_chemical_formula_structural       BaTiO2Ti2BaOTiO7
_chemical_formula_sum              "Ba2 Ti4 O10"
_cell_length_a       3.815004698644328
_cell_length_b       6.34443780401298
_cell_length_c       9.584972381591797
_cell_angle_alpha    84.16579841153455
_cell_angle_beta     89.95263514158985
_cell_angle_gamma    89.99382801331552

_space_group_name_H-M_alt    "P 1"
_space_group_IT_number       1

loop_
  _space_group_symop_operation_xyz
  'x, y, z'

loop_
  _atom_site_type_symbol
  _atom_site_label
  _atom_site_symmetry_multiplicity
  _atom_site_fract_x
  _atom_site_fract_y
  _atom_site_fract_z
  _atom_site_occupancy
  Ba  Ba1       1.0  0.4758892021121614  0.0157565350613921  0.019962750087467576  1.0000
  Ti  Ti1       1.0  0.9575603949530401  0.5871097235272243  0.18490412132986256  1.0000
  O   O1        1.0  0.9833323755690353  0.6290463726111858  0.7004116064591643  1.0000
  O   O2        1.0  0.48570401819120895  0.619621822164113  0.2078760757609821  1.0000
  Ti  Ti2       1.0  0.9720654615616606  0.9514360547128966  0.7164008220693675  1.0000
  Ti  Ti3       1.0  0.9816138304606835  0.1561105399230109  0.3363041179525266  1.0000
  Ba  Ba2       1.0  0.4811000130235107  0.6661909615769275  0.49543062985444636  1.0000
  O   O3        1.0  0.47286993725249304  0.43114458922345283  0.9001013235951342  1.0000
  Ti  Ti4       1.0  0.0027229124188321574  0.4709568449331041  0.8698970027241757  1.0000
  O   O4        1.0  0.9775614772218834  0.7026399029890357  0.9952791549261012  1.0000
  O   O5        1.0  0.47806431391470156  0.916910439166813  0.736451176463322  1.0000
  O   O6        1.0  0.9721181741360089  0.028971459581570852  0.524282712813437  1.0000
  O   O7        1.0  0.9749860369249058  0.1665557254760497  0.8327248953428343  1.0000
  O   O8        1.0  0.9900485005242944  0.8911727980415464  0.27011285338507107  1.0000
  O   O9        1.0  0.9717000002661217  0.2914746074425158  0.14789575246408984  1.0000
  O   O10       1.0  0.9875378427428233  0.4287923950425569  0.3909582429388026  1.0000
