data_image324
_chemical_formula_structural       TiBaO2
_chemical_formula_sum              "Ti1 Ba1 O2"
_cell_length_a       3.31434300783213
_cell_length_b       3.314231393478635
_cell_length_c       6.282316207885742
_cell_angle_alpha    74.73544434106746
_cell_angle_beta     74.73620161425139
_cell_angle_gamma    60.056952552744924

_space_group_name_H-M_alt    "P 1"
_space_group_IT_number       1

loop_
  _space_group_symop_operation_xyz
  'x, y, z'

loop_
  _atom_site_type_symbol
  _atom_site_label
  _atom_site_symmetry_multiplicity
  _atom_site_fract_x
  _atom_site_fract_y
  _atom_site_fract_z
  _atom_site_occupancy
  Ti  Ti1       1.0  0.2626777887228248  0.6938832872133026  0.8507551667854043  1.0000
  Ba  Ba1       1.0  0.7627695448394022  0.19397678812718222  0.35072200185144625  1.0000
  O   O1        1.0  0.5409246741943464  0.9721274163837242  0.01609480465167957  1.0000
  O   O2        1.0  0.9844886694322594  0.4157262324117501  0.6853314666755059  1.0000
