data_image397
_chemical_formula_structural       OTiOBa2OTiBaO4
_chemical_formula_sum              "O7 Ti2 Ba3"
_cell_length_a       5.613050048516461
_cell_length_b       5.609333188521154
_cell_length_c       7.467238903045654
_cell_angle_alpha    90.02709103290937
_cell_angle_beta     112.03747820917732
_cell_angle_gamma    89.98276993760093

_space_group_name_H-M_alt    "P 1"
_space_group_IT_number       1

loop_
  _space_group_symop_operation_xyz
  'x, y, z'

loop_
  _atom_site_type_symbol
  _atom_site_label
  _atom_site_symmetry_multiplicity
  _atom_site_fract_x
  _atom_site_fract_y
  _atom_site_fract_z
  _atom_site_occupancy
  O   O1        1.0  0.2058619866457864  0.44587071982960724  0.7735568483003086  1.0000
  Ti  Ti1       1.0  0.42767282755005476  0.6956957474551642  0.7348085649158609  1.0000
  O   O2        1.0  0.29798436383986404  0.6954786947651385  0.4749829075230729  1.0000
  Ba  Ba1       1.0  0.585942575929459  0.19565011677838767  0.051746612965632224  1.0000
  Ba  Ba2       1.0  0.29096059147506304  0.19554624701397355  0.4615681315600839  1.0000
  O   O3        1.0  0.7829252148122221  0.1955687865249902  0.44544903572596833  1.0000
  Ti  Ti2       1.0  0.9606025317563636  0.19582545015937122  0.8007854878770853  1.0000
  Ba  Ba3       1.0  0.8126038942865821  0.6956266583213313  0.5043974781519613  1.0000
  O   O4        1.0  0.6880058791652095  0.9453705950278974  0.7736386635177065  1.0000
  O   O5        1.0  0.09008560161584984  0.1958530340953557  0.060036780157172044  1.0000
  O   O6        1.0  0.20595205504468575  0.94543212847688  0.7735791310179011  1.0000
  O   O7        1.0  0.6879808426047425  0.4458485406854683  0.7737095637515878  1.0000
