data_image1078
_chemical_formula_structural       TiBaOBa2O2TiOBaOBaO4Ti2O2
_chemical_formula_sum              "Ti4 Ba5 O11"
_cell_length_a       5.796828130593629
_cell_length_b       5.892316224434862
_cell_length_c       10.31117248535156
_cell_angle_alpha    93.08093034585247
_cell_angle_beta     89.8844835146757
_cell_angle_gamma    119.31298272641688

_space_group_name_H-M_alt    "P 1"
_space_group_IT_number       1

loop_
  _space_group_symop_operation_xyz
  'x, y, z'

loop_
  _atom_site_type_symbol
  _atom_site_label
  _atom_site_symmetry_multiplicity
  _atom_site_fract_x
  _atom_site_fract_y
  _atom_site_fract_z
  _atom_site_occupancy
  Ti  Ti1       1.0  0.6397327154010386  0.8027876441698749  0.5478294783340886  1.0000
  Ba  Ba1       1.0  0.30507587049341806  0.13292367030138172  0.41107781495502027  1.0000
  O   O1        1.0  0.7498820144700244  0.017924097479054834  0.7223139753657644  1.0000
  Ba  Ba2       1.0  0.9471143781021085  0.4152737110964067  0.9999449954069822  1.0000
  Ba  Ba3       1.0  0.6261219469337085  0.7741468598993478  0.20536840724503277  1.0000
  O   O2        1.0  0.5020704487032113  0.5297931285050131  0.6884980253432261  1.0000
  O   O3        1.0  0.8049652728438993  0.6382496228778971  0.4426175838039025  1.0000
  Ti  Ti2       1.0  0.6123195989250162  0.7451269845785212  0.8630244979557042  1.0000
  O   O4        1.0  0.31035597114289926  0.6387265779085833  0.4427995979008559  1.0000
  Ba  Ba4       1.0  0.28072830598388  0.08198511760085483  0.7792607334896148  1.0000
  O   O5        1.0  0.44985648141856815  0.4203592788325379  0.9708471411068466  1.0000
  Ba  Ba5       1.0  0.9712970867976938  0.4658780555010261  0.6318361865097576  1.0000
  O   O6        1.0  0.9417909010878133  0.9095766233095594  0.9683366769200142  1.0000
  O   O7        1.0  0.1261280459577917  0.7741413534132325  0.20554037148172474  1.0000
  O   O8        1.0  0.44733347039719246  0.9100072348217733  0.9685008166045913  1.0000
  O   O9        1.0  0.6261287119076102  0.27415196505313194  0.2055329341580509  1.0000
  Ti  Ti3       1.0  0.9654626594642439  0.453706039409416  0.3174821669582436  1.0000
  Ti  Ti4       1.0  0.28674651077788693  0.09450912531505094  0.09350486529949123  1.0000
  O   O10       1.0  0.1261617111141496  0.27417294419240373  0.20553687930035108  1.0000
  O   O11       1.0  0.8023097730485589  0.12773940022706737  0.44019934968902324  1.0000
