data_image186
_chemical_formula_structural       Ti3OTiBaOBa
_chemical_formula_sum              "Ti4 O2 Ba2"
_cell_length_a       3.4087837320909546
_cell_length_b       4.881847881567755
_cell_length_c       11.758837699890137
_cell_angle_alpha    102.41941074267162
_cell_angle_beta     90.32089845343043
_cell_angle_gamma    110.41062205336233

_space_group_name_H-M_alt    "P 1"
_space_group_IT_number       1

loop_
  _space_group_symop_operation_xyz
  'x, y, z'

loop_
  _atom_site_type_symbol
  _atom_site_label
  _atom_site_symmetry_multiplicity
  _atom_site_fract_x
  _atom_site_fract_y
  _atom_site_fract_z
  _atom_site_occupancy
  Ti  Ti1       1.0  0.03238825697585812  0.7052683800570965  0.04738365102969581  1.0000
  Ti  Ti2       1.0  0.7246561031303366  0.09249749327298412  0.9812440259635401  1.0000
  Ti  Ti3       1.0  0.3607106977034947  0.368637594801543  0.8559042709019858  1.0000
  O   O1        1.0  0.45071228181255313  0.5538337376664487  0.7083947457511435  1.0000
  Ti  Ti4       1.0  0.053008361164448986  0.7559806545113119  0.789733147179855  1.0000
  Ba  Ba1       1.0  0.723744837946745  0.10193378090419261  0.5816075591145715  1.0000
  O   O2        1.0  0.6346902350544079  0.9073436675739339  0.1287863735006016  1.0000
  Ba  Ba2       1.0  0.3619836142551713  0.3597636717672467  0.25542920640734446  1.0000
