data_image348
_chemical_formula_structural       OTiO2Ti2BaO2Ti2BaOTiO6
_chemical_formula_sum              "O12 Ti6 Ba2"
_cell_length_a       3.807832007319532
_cell_length_b       7.161722766034036
_cell_length_c       10.541173934936523
_cell_angle_alpha    102.70668107162277
_cell_angle_beta     89.97118593571504
_cell_angle_gamma    89.99718163677566

_space_group_name_H-M_alt    "P 1"
_space_group_IT_number       1

loop_
  _space_group_symop_operation_xyz
  'x, y, z'

loop_
  _atom_site_type_symbol
  _atom_site_label
  _atom_site_symmetry_multiplicity
  _atom_site_fract_x
  _atom_site_fract_y
  _atom_site_fract_z
  _atom_site_occupancy
  O   O1        1.0  0.9625880232146358  0.6152545976882331  0.3249957203707464  1.0000
  Ti  Ti1       1.0  0.9627122593907934  0.6795635002284017  0.8537829732595769  1.0000
  O   O2        1.0  0.46261225806965234  0.793389945651155  0.5047884267654773  1.0000
  O   O3        1.0  0.9626555067537842  0.12540098090859242  0.5938033706664961  1.0000
  Ti  Ti2       1.0  0.46281330718005836  0.5778931589103707  0.6045685151771655  1.0000
  Ti  Ti3       1.0  0.46256965473322953  0.5728023398619391  0.33169830286894125  1.0000
  Ba  Ba1       1.0  0.4628500854538662  0.9947186622311256  0.14950694562188868  1.0000
  O   O4        1.0  0.9627939123765232  0.5349986402457837  0.6114112969978991  1.0000
  O   O5        1.0  0.9628891301606959  0.7555381418127605  0.030038646908239073  1.0000
  Ti  Ti4       1.0  0.9626862973334196  0.27761943306670533  0.4750314105634137  1.0000
  Ti  Ti5       1.0  0.9626730138281268  0.471155695693839  0.08232046271461156  1.0000
  Ba  Ba2       1.0  0.46252565410408975  0.1559535813573607  0.7866011688590449  1.0000
  O   O6        1.0  0.4627453172391782  0.35724592642177605  0.4315369202240425  1.0000
  Ti  Ti6       1.0  0.9626707425111248  0.8729393253471499  0.46112363293659514  1.0000
  O   O7        1.0  0.4627266389370224  0.5434155529581348  0.14039122520814923  1.0000
  O   O8        1.0  0.9625080364521544  0.9076224997184662  0.8134349110682759  1.0000
  O   O9        1.0  0.9624947739843168  0.3952452606639099  0.9060685674072586  1.0000
  O   O10       1.0  0.9626979978319737  0.025177214576373737  0.34233327728719515  1.0000
  O   O11       1.0  0.9628780370075156  0.24297016728521567  0.1224530661725182  1.0000
  O   O12       1.0  0.46265899289100026  0.6074272121502838  0.7958710509976736  1.0000
