data_image171
_chemical_formula_structural       Ba2TiBaO2
_chemical_formula_sum              "Ba3 Ti1 O2"
_cell_length_a       3.8229838956350974
_cell_length_b       3.82257382719349
_cell_length_c       12.825547218322756
_cell_angle_alpha    89.98314559667625
_cell_angle_beta     90.0800386555506
_cell_angle_gamma    90.12687327197335

_space_group_name_H-M_alt    "P 1"
_space_group_IT_number       1

loop_
  _space_group_symop_operation_xyz
  'x, y, z'

loop_
  _atom_site_type_symbol
  _atom_site_label
  _atom_site_symmetry_multiplicity
  _atom_site_fract_x
  _atom_site_fract_y
  _atom_site_fract_z
  _atom_site_occupancy
  Ba  Ba1       1.0  0.4236772924354082  0.020044547212026465  0.4164611767830415  1.0000
  Ba  Ba2       1.0  0.924270350024321  0.5187998546392869  0.11565069494275071  1.0000
  Ti  Ti1       1.0  0.424084341594257  0.01918264169292179  0.9164347261509654  1.0000
  Ba  Ba3       1.0  0.9236983477570837  0.5198168261292256  0.716984864521536  1.0000
  O   O1        1.0  0.42399885389429287  0.01893132352146516  0.06451754778081131  1.0000
  O   O2        1.0  0.4240017259691847  0.0197272165223505  0.7683493046244516  1.0000
