data_image161
_chemical_formula_structural       TiBaOTiOBaO2TiOTiO5
_chemical_formula_sum              "Ti4 Ba2 O10"
_cell_length_a       3.8094854725793823
_cell_length_b       6.353892215742004
_cell_length_c       9.571840286254883
_cell_angle_alpha    96.22189513832778
_cell_angle_beta     89.99200435274187
_cell_angle_gamma    89.93960997541377

_space_group_name_H-M_alt    "P 1"
_space_group_IT_number       1

loop_
  _space_group_symop_operation_xyz
  'x, y, z'

loop_
  _atom_site_type_symbol
  _atom_site_label
  _atom_site_symmetry_multiplicity
  _atom_site_fract_x
  _atom_site_fract_y
  _atom_site_fract_z
  _atom_site_occupancy
  Ti  Ti1       1.0  0.6876137891258096  0.22361431609067178  0.16012461079267315  1.0000
  Ba  Ba1       1.0  0.176889167890981  0.2884925925098591  0.8571690636894974  1.0000
  O   O1        1.0  0.6546123339560918  0.16398585204026264  0.6070659991495665  1.0000
  Ti  Ti2       1.0  0.691124790671892  0.8587794228202144  0.6931291046831559  1.0000
  O   O2        1.0  0.6681193108405182  0.901475829557949  0.1775961658342655  1.0000
  Ba  Ba2       1.0  0.1693152068505071  0.9375079006373689  0.3820753948968657  1.0000
  O   O3        1.0  0.6590454324737389  0.700117947615413  0.487138855919377  1.0000
  O   O4        1.0  0.177981939083482  0.7034225524063451  0.9768377377359625  1.0000
  Ti  Ti3       1.0  0.6719647021714878  0.4276646978440351  0.5411715782037024  1.0000
  O   O5        1.0  0.6729260918834243  0.9759923402008192  0.8832775874701208  1.0000
  Ti  Ti4       1.0  0.6491454815409939  0.7432948587852303  0.00748367858302916  1.0000
  O   O6        1.0  0.16294986769231945  0.892917491219589  0.6699803941797069  1.0000
  O   O7        1.0  0.6888045442384639  0.30119140337595773  0.35289199332879884  1.0000
  O   O8        1.0  0.1754155108352021  0.18854820125749028  0.13913972027956456  1.0000
  O   O9        1.0  0.6833586382760102  0.5644986419072181  0.7303796537690014  1.0000
  O   O10       1.0  0.6761679885782598  0.4399986466484692  0.04572124180397361  1.0000
