data_image52
_chemical_formula_structural       Ba3OBaTiO5TiOTiO2
_chemical_formula_sum              "Ba4 O9 Ti3"
_cell_length_a       6.404862332526175
_cell_length_b       7.843724237050537
_cell_length_c       7.403315067291259
_cell_angle_alpha    62.603223162859294
_cell_angle_beta     71.80506812882015
_cell_angle_gamma    82.0548116617975

_space_group_name_H-M_alt    "P 1"
_space_group_IT_number       1

loop_
  _space_group_symop_operation_xyz
  'x, y, z'

loop_
  _atom_site_type_symbol
  _atom_site_label
  _atom_site_symmetry_multiplicity
  _atom_site_fract_x
  _atom_site_fract_y
  _atom_site_fract_z
  _atom_site_occupancy
  Ba  Ba1       1.0  0.8644059227125788  0.2897772758043935  0.4752340997021439  1.0000
  Ba  Ba2       1.0  0.2930951320093901  0.09131632333981272  0.867812461575329  1.0000
  Ba  Ba3       1.0  0.246568426046009  0.5932229879965736  0.8396915820858799  1.0000
  O   O1        1.0  0.618629771051316  0.972454260464198  0.6146266101934682  1.0000
  Ba  Ba4       1.0  0.7579207608911693  0.8546655729660125  0.3057882004001712  1.0000
  Ti  Ti1       1.0  0.3756868224671563  0.5679232631466227  0.281659164090847  1.0000
  O   O2        1.0  0.5493347861509229  0.7881718741362381  0.0744021905072029  1.0000
  O   O3        1.0  0.01733473082496574  0.9225496486889527  0.771702353739149  1.0000
  O   O4        1.0  0.44872991550646063  0.49536309940619394  0.5302044708469009  1.0000
  O   O5        1.0  0.4713683260707429  0.38975569887871886  0.1676224222888097  1.0000
  O   O6        1.0  0.6616313529293362  0.20240349274995298  0.8897351614576081  1.0000
  Ti  Ti2       1.0  0.7341403181690571  0.3539337472028063  0.9824583309220206  1.0000
  O   O7        1.0  0.8352468171769513  0.5999336327892677  0.7571522554174379  1.0000
  Ti  Ti3       1.0  0.7596781888046694  0.8169282772747162  0.8140238752516163  1.0000
  O   O8        1.0  0.09392658747105134  0.6265274604825842  0.2559202094279486  1.0000
  O   O9        1.0  0.9643789002638802  0.2463818735192416  0.10078963316823161  1.0000
