data_image43
_chemical_formula_structural       BaTi2OBa2O6
_chemical_formula_sum              "Ba3 Ti2 O7"
_cell_length_a       3.979025672723491
_cell_length_b       4.01498187055811
_cell_length_c       12.971912384033203
_cell_angle_alpha    89.75455283710038
_cell_angle_beta     90.04110658111424
_cell_angle_gamma    90.26331995649794

_space_group_name_H-M_alt    "P 1"
_space_group_IT_number       1

loop_
  _space_group_symop_operation_xyz
  'x, y, z'

loop_
  _atom_site_type_symbol
  _atom_site_label
  _atom_site_symmetry_multiplicity
  _atom_site_fract_x
  _atom_site_fract_y
  _atom_site_fract_z
  _atom_site_occupancy
  Ba  Ba1       1.0  0.49317969253839955  0.6466665397862718  0.5503838240444436  1.0000
  Ti  Ti1       1.0  0.9751200346937325  0.17480119005824854  0.04196257015229984  1.0000
  Ti  Ti2       1.0  0.9788842261978161  0.1661116883996844  0.3397014885958932  1.0000
  O   O1        1.0  0.0015440469929277612  0.6325706608095595  0.03068326158835003  1.0000
  Ba  Ba2       1.0  0.4865696442015204  0.6581436275030144  0.18902162224436492  1.0000
  Ba  Ba3       1.0  0.9962592602438103  0.14090657062393885  0.7727673578680152  1.0000
  O   O2        1.0  0.5079509756631913  0.14057430306012447  0.028194471612709684  1.0000
  O   O3        1.0  0.5039630094191323  0.13467080906682088  0.3538542159787656  1.0000
  O   O4        1.0  0.4955119569398141  0.1440583603268885  0.6629647386482259  1.0000
  O   O5        1.0  0.9942883019329829  0.643081324586801  0.6651167799341907  1.0000
  O   O6        1.0  0.9925768938709558  0.14868658412629362  0.19124723354881182  1.0000
  O   O7        1.0  0.9988987963479385  0.6270454160317397  0.353866231442478  1.0000
