data_image263
_chemical_formula_structural       BaTiO2BaTiO4
_chemical_formula_sum              "Ba2 Ti2 O6"
_cell_length_a       4.2802992031890525
_cell_length_b       5.661328886363849
_cell_length_c       5.661346435546875
_cell_angle_alpha    89.90832770303781
_cell_angle_beta     89.91870959198565
_cell_angle_gamma    89.90364902104153

_space_group_name_H-M_alt    "P 1"
_space_group_IT_number       1

loop_
  _space_group_symop_operation_xyz
  'x, y, z'

loop_
  _atom_site_type_symbol
  _atom_site_label
  _atom_site_symmetry_multiplicity
  _atom_site_fract_x
  _atom_site_fract_y
  _atom_site_fract_z
  _atom_site_occupancy
  Ba  Ba1       1.0  0.0021025872080085257  0.14070705965647862  0.3829527726409726  1.0000
  Ti  Ti1       1.0  0.5206301530469805  0.14494524563387023  0.8888564408944326  1.0000
  O   O1        1.0  0.9452991976101726  0.637752034134202  0.3793415783622145  1.0000
  O   O2        1.0  0.4698697432825653  0.8826154086482838  0.6234762686051507  1.0000
  Ba  Ba2       1.0  0.002127042227008911  0.6407075367458309  0.8829442024359887  1.0000
  Ti  Ti2       1.0  0.5205823424788981  0.6449422901072628  0.3888430807396134  1.0000
  O   O3        1.0  0.4696238439464777  0.8846376090196006  0.12474754654071055  1.0000
  O   O4        1.0  0.9452576692350221  0.137755037839955  0.8793496293971312  1.0000
  O   O5        1.0  0.4696218642865569  0.38466987485067516  0.6247742854504919  1.0000
  O   O6        1.0  0.4698655111163449  0.3825972393717358  0.12350289574237328  1.0000
