data_image337
_chemical_formula_structural       BaOTiO2
_chemical_formula_sum              "Ba1 O3 Ti1"
_cell_length_a       4.078260537604693
_cell_length_b       4.083991133342998
_cell_length_c       4.084974765777588
_cell_angle_alpha    90.17106459687234
_cell_angle_beta     89.7779257360417
_cell_angle_gamma    90.17215059927922

_space_group_name_H-M_alt    "P 1"
_space_group_IT_number       1

loop_
  _space_group_symop_operation_xyz
  'x, y, z'

loop_
  _atom_site_type_symbol
  _atom_site_label
  _atom_site_symmetry_multiplicity
  _atom_site_fract_x
  _atom_site_fract_y
  _atom_site_fract_z
  _atom_site_occupancy
  Ba  Ba1       1.0  0.06960545734511747  0.9291488313053733  0.15292062360784478  1.0000
  O   O1        1.0  0.5849227891479374  0.9013713790833926  0.6688275016614885  1.0000
  Ti  Ti1       1.0  0.5545428907434753  0.4443332130042256  0.6374327114088312  1.0000
  O   O2        1.0  0.5848067853075918  0.4141714697857924  0.1807902700482596  1.0000
  O   O3        1.0  0.09667372621519728  0.4135220368533582  0.6690829849085469  1.0000
