data_image311
_chemical_formula_structural       TiBa2O2TiBaO4
_chemical_formula_sum              "Ti2 Ba3 O6"
_cell_length_a       4.052074062008887
_cell_length_b       4.053003875817308
_cell_length_c       11.529061317443846
_cell_angle_alpha    100.1380928707106
_cell_angle_beta     100.13357136523219
_cell_angle_gamma    89.95287424258913

_space_group_name_H-M_alt    "P 1"
_space_group_IT_number       1

loop_
  _space_group_symop_operation_xyz
  'x, y, z'

loop_
  _atom_site_type_symbol
  _atom_site_label
  _atom_site_symmetry_multiplicity
  _atom_site_fract_x
  _atom_site_fract_y
  _atom_site_fract_z
  _atom_site_occupancy
  Ti  Ti1       1.0  0.49693356924087007  0.07695918891123486  0.38391061636320395  1.0000
  Ba  Ba1       1.0  0.2684277296730829  0.8488264334134393  0.9267172582731065  1.0000
  Ba  Ba2       1.0  0.9153479210583337  0.49543869329894336  0.2207237968207406  1.0000
  O   O1        1.0  0.9987682110490608  0.07890846125591716  0.3874417300921978  1.0000
  O   O2        1.0  0.4987493947653429  0.5790330513082241  0.38743551550807703  1.0000
  Ti  Ti2       1.0  0.6774228945703352  0.25775808135638234  0.7447218513447229  1.0000
  Ba  Ba3       1.0  0.09061816702106777  0.6708112132369446  0.5711691813008963  1.0000
  O   O3        1.0  0.5909705499608073  0.17122552727029175  0.5718338863430916  1.0000
  O   O4        1.0  0.186816003333432  0.26716710200128196  0.7634802498756382  1.0000
  O   O5        1.0  0.6867874170917222  0.7671416142821275  0.7634513265370357  1.0000
  O   O6        1.0  0.41004530425898156  0.9902595823640232  0.21021369136317455  1.0000
