data_image126
_chemical_formula_structural       OTiBaO
_chemical_formula_sum              "O2 Ti1 Ba1"
_cell_length_a       4.0959516280692085
_cell_length_b       4.099303402391085
_cell_length_c       6.698716640472411
_cell_angle_alpha    72.20457223149675
_cell_angle_beta     72.20005193894022
_cell_angle_gamma    60.032890992141716

_space_group_name_H-M_alt    "P 1"
_space_group_IT_number       1

loop_
  _space_group_symop_operation_xyz
  'x, y, z'

loop_
  _atom_site_type_symbol
  _atom_site_label
  _atom_site_symmetry_multiplicity
  _atom_site_fract_x
  _atom_site_fract_y
  _atom_site_fract_z
  _atom_site_occupancy
  O   O1        1.0  0.5474230483010367  0.4872671627583505  0.6151340489103551  1.0000
  Ti  Ti1       1.0  0.44923671568206786  0.38959858384872453  0.9089496151651405  1.0000
  Ba  Ba1       1.0  0.9493471765120275  0.8896627445633649  0.40894334531142656  1.0000
  O   O2        1.0  0.3513684416138055  0.2921014689691667  0.2027681944496225  1.0000
