data_image206
_chemical_formula_structural       BaTiO2TiO3BaO2Ba
_chemical_formula_sum              "Ba3 Ti2 O7"
_cell_length_a       4.079861021657875
_cell_length_b       4.076871399988227
_cell_length_c       11.094314575195312
_cell_angle_alpha    100.42651168119136
_cell_angle_beta     100.57021816817765
_cell_angle_gamma    89.99216852420398

_space_group_name_H-M_alt    "P 1"
_space_group_IT_number       1

loop_
  _space_group_symop_operation_xyz
  'x, y, z'

loop_
  _atom_site_type_symbol
  _atom_site_label
  _atom_site_symmetry_multiplicity
  _atom_site_fract_x
  _atom_site_fract_y
  _atom_site_fract_z
  _atom_site_occupancy
  Ba  Ba1       1.0  0.9770575964770002  0.37468188544156056  0.17793621713605387  1.0000
  Ti  Ti1       1.0  0.36887677238246397  0.7600037976548113  0.9884326140897608  1.0000
  O   O1        1.0  0.30735568492099385  0.6969684570911632  0.8062209887256001  1.0000
  O   O2        1.0  0.9074877108827469  0.7850017851588587  0.9891744627400181  1.0000
  Ti  Ti2       1.0  0.5583747430619556  0.9894241256006826  0.36736061098962264  1.0000
  O   O3        1.0  0.09622609355202236  0.9643732235818421  0.36666805148355236  1.0000
  O   O4        1.0  0.39521010612089374  0.2951045908837434  0.9890063297748246  1.0000
  O   O5        1.0  0.5842326345838358  0.4544079970903783  0.3668304936964893  1.0000
  Ba  Ba2       1.0  0.16087219497331715  0.5634160503457728  0.5438028815640883  1.0000
  O   O6        1.0  0.4954428399242804  0.8746622302974622  0.1779108934219432  1.0000
  O   O7        1.0  0.6788786225327331  0.05241058374713503  0.5496830905125711  1.0000
  Ba  Ba3       1.0  0.7950384079868102  0.18600230598828096  0.8120740045701146  1.0000
