data_image381
_chemical_formula_structural       BaOBaTi2O3
_chemical_formula_sum              "Ba2 O4 Ti2"
_cell_length_a       4.003282505510145
_cell_length_b       3.819552420169786
_cell_length_c       8.48592472076416
_cell_angle_alpha    83.90081459285786
_cell_angle_beta     89.90347826970051
_cell_angle_gamma    89.98116484336086

_space_group_name_H-M_alt    "P 1"
_space_group_IT_number       1

loop_
  _space_group_symop_operation_xyz
  'x, y, z'

loop_
  _atom_site_type_symbol
  _atom_site_label
  _atom_site_symmetry_multiplicity
  _atom_site_fract_x
  _atom_site_fract_y
  _atom_site_fract_z
  _atom_site_occupancy
  Ba  Ba1       1.0  0.433409171907725  0.4627875743033797  0.7045374251764936  1.0000
  O   O1        1.0  0.9332641547595016  0.9690910265780793  0.6608087096514946  1.0000
  Ba  Ba2       1.0  0.9334790108570098  0.9011733987860432  0.01897065310592464  1.0000
  Ti  Ti1       1.0  0.933582909701383  0.9609812638854103  0.429921037167974  1.0000
  Ti  Ti2       1.0  0.4333489032731943  0.40242559688668655  0.29353190015176295  1.0000
  O   O2        1.0  0.4336113135332028  0.8801302931759204  0.39948926859429096  1.0000
  O   O3        1.0  0.9333238301651081  0.4832100467590787  0.32369611594714726  1.0000
  O   O4        1.0  0.4336416664760348  0.39478295702950333  0.06256879590674116  1.0000
