data_image3
_chemical_formula_structural       Ba2OTiO2
_chemical_formula_sum              "Ba2 O3 Ti1"
_cell_length_a       3.9581717451071046
_cell_length_b       3.9607768884934367
_cell_length_c       9.180130004882812
_cell_angle_alpha    102.4648785259463
_cell_angle_beta     102.45102082113566
_cell_angle_gamma    89.99168346820261

_space_group_name_H-M_alt    "P 1"
_space_group_IT_number       1

loop_
  _space_group_symop_operation_xyz
  'x, y, z'

loop_
  _atom_site_type_symbol
  _atom_site_label
  _atom_site_symmetry_multiplicity
  _atom_site_fract_x
  _atom_site_fract_y
  _atom_site_fract_z
  _atom_site_occupancy
  Ba  Ba1       1.0  0.7345499851034633  0.31080383227159536  0.24317368445016677  1.0000
  Ba  Ba2       1.0  0.9717221738324805  0.548090738729509  0.7174853389073176  1.0000
  O   O1        1.0  0.8475441219455109  0.9238400437294465  0.4691721487621418  1.0000
  Ti  Ti1       1.0  0.3576659644456111  0.9339832249911356  0.48942001964723986  1.0000
  O   O2        1.0  0.3476329840523955  0.42396346834947235  0.4693859577775362  1.0000
  O   O3        1.0  0.4675747569143781  0.04393870471084377  0.7091770625273188  1.0000
