data_image382
_chemical_formula_structural       OBa2O2Ti
_chemical_formula_sum              "O3 Ba2 Ti1"
_cell_length_a       3.9735630648261564
_cell_length_b       4.047359508040306
_cell_length_c       7.394968509674072
_cell_angle_alpha    105.70120516297378
_cell_angle_beta     105.535793453727
_cell_angle_gamma    89.96473801491385

_space_group_name_H-M_alt    "P 1"
_space_group_IT_number       1

loop_
  _space_group_symop_operation_xyz
  'x, y, z'

loop_
  _atom_site_type_symbol
  _atom_site_label
  _atom_site_symmetry_multiplicity
  _atom_site_fract_x
  _atom_site_fract_y
  _atom_site_fract_z
  _atom_site_occupancy
  O   O1        1.0  0.5730132648964394  0.19980767271516117  0.2767217654134824  1.0000
  Ba  Ba1       1.0  0.7799613387892794  0.40762806825260706  0.6902946088455058  1.0000
  Ba  Ba2       1.0  0.07981020155977055  0.7072849497502991  0.29040550325976244  1.0000
  O   O2        1.0  0.2867962126459872  0.9150199768465356  0.7038604087750953  1.0000
  O   O3        1.0  0.429887762496029  0.5574181574470396  0.9902837986375318  1.0000
  Ti  Ti1       1.0  0.42990495521789746  0.057445408941811875  0.9903424267683502  1.0000
