data_image137
_chemical_formula_structural       OBaO4BaTiBaOTiOBa2O2
_chemical_formula_sum              "O9 Ba5 Ti2"
_cell_length_a       3.8652279902767592
_cell_length_b       5.38423279347875
_cell_length_c       14.512324333190916
_cell_angle_alpha    101.16010793613412
_cell_angle_beta     89.99054952287159
_cell_angle_gamma    90.06986167724487

_space_group_name_H-M_alt    "P 1"
_space_group_IT_number       1

loop_
  _space_group_symop_operation_xyz
  'x, y, z'

loop_
  _atom_site_type_symbol
  _atom_site_label
  _atom_site_symmetry_multiplicity
  _atom_site_fract_x
  _atom_site_fract_y
  _atom_site_fract_z
  _atom_site_occupancy
  O   O1        1.0  0.21694968754736593  0.7166755743556936  0.6132978008388742  1.0000
  Ba  Ba1       1.0  0.21538549169921237  0.7155618301676434  0.07624890283798084  1.0000
  O   O2        1.0  0.7148431894809482  0.9864680690215533  0.20699943929174866  1.0000
  O   O3        1.0  0.2145806978754327  0.1154940466269211  0.5106730087026309  1.0000
  O   O4        1.0  0.7135889479928251  0.18620433243394152  0.6525377042351252  1.0000
  O   O5        1.0  0.2147644818248897  0.41434513288034375  0.2069361109475963  1.0000
  Ba  Ba2       1.0  0.7145786444364216  0.1727461138859745  0.9025295753024649  1.0000
  Ti  Ti1       1.0  0.21823486626106162  0.05590490124618526  0.6359185319740092  1.0000
  Ba  Ba3       1.0  0.21525820573628876  0.854515939571901  0.3314162915014011  1.0000
  O   O6        1.0  0.21418341360295923  0.10888174900651679  0.7809356601842973  1.0000
  Ti  Ti2       1.0  0.7152108041636969  0.3299476564965504  0.20749622276263285  1.0000
  O   O7        1.0  0.7146923055942258  0.381081096181117  0.07945070731214258  1.0000
  Ba  Ba4       1.0  0.715943323492369  0.45322961622359437  0.5121906705948834  1.0000
  Ba  Ba5       1.0  0.214701573089519  0.6080093854803317  0.780951763503416  1.0000
  O   O8        1.0  0.7148730052888935  0.6841188526101447  0.9066447150791703  1.0000
  O   O9        1.0  0.7147196142568184  0.5252350674291139  0.3369853961354954  1.0000
