data_image34
_chemical_formula_structural       Ba2O2TiO2BaOTiOTiO4TiO
_chemical_formula_sum              "Ba3 O11 Ti4"
_cell_length_a       4.123521712565605
_cell_length_b       5.713732964102955
_cell_length_c       11.25031566619873
_cell_angle_alpha    89.95027190125886
_cell_angle_beta     89.87132857555955
_cell_angle_gamma    90.01446201435486

_space_group_name_H-M_alt    "P 1"
_space_group_IT_number       1

loop_
  _space_group_symop_operation_xyz
  'x, y, z'

loop_
  _atom_site_type_symbol
  _atom_site_label
  _atom_site_symmetry_multiplicity
  _atom_site_fract_x
  _atom_site_fract_y
  _atom_site_fract_z
  _atom_site_occupancy
  Ba  Ba1       1.0  0.1158032979897024  0.29167382957313104  0.8783232817483737  1.0000
  Ba  Ba2       1.0  0.11809887890697894  0.7913145696432033  0.14995620567501763  1.0000
  O   O1        1.0  0.07843469096909703  0.7917017410978204  0.9072948175457185  1.0000
  O   O2        1.0  0.5858753990824062  0.5700642757105892  0.7709211819308464  1.0000
  Ti  Ti1       1.0  0.6414919622924625  0.7916601097221784  0.9066097339500179  1.0000
  O   O3        1.0  0.5890812204745545  0.0461412145214754  0.02329426803547995  1.0000
  O   O4        1.0  0.5874903408840095  0.5365829372533375  0.276621259183911  1.0000
  Ba  Ba3       1.0  0.1124959133506863  0.2910568187187115  0.42178443163747437  1.0000
  O   O5        1.0  0.07376342471563507  0.29136228558793353  0.14996120644727426  1.0000
  Ti  Ti2       1.0  0.5116958190044183  0.7914781550769883  0.6502053501308662  1.0000
  O   O6        1.0  0.5801640605414681  0.5698033814484236  0.5291369372139965  1.0000
  Ti  Ti3       1.0  0.6384592044646931  0.7910269355653244  0.3933056354147362  1.0000
  O   O7        1.0  0.5888694912291655  0.536973855983515  0.023339220578996813  1.0000
  O   O8        1.0  0.58179050947441  0.0127719318546028  0.5290071442344901  1.0000
  O   O9        1.0  0.5845200043347129  0.013087995578290898  0.7708219405574108  1.0000
  O   O10       1.0  0.5872627543029889  0.04582280164132704  0.2765586210826705  1.0000
  Ti  Ti4       1.0  0.6340978229910981  0.2912986605056232  0.1500094684361651  1.0000
  O   O11       1.0  0.075383088879564  0.7911129768632056  0.3924621084565854  1.0000
