data_image898
_chemical_formula_structural       OBaOTiOBaO2Ti2O2
_chemical_formula_sum              "O7 Ba2 Ti3"
_cell_length_a       3.8928790515605542
_cell_length_b       5.857026047125963
_cell_length_c       8.56732177734375
_cell_angle_alpha    88.90139385486258
_cell_angle_beta     76.98601965675331
_cell_angle_gamma    89.97411606206498

_space_group_name_H-M_alt    "P 1"
_space_group_IT_number       1

loop_
  _space_group_symop_operation_xyz
  'x, y, z'

loop_
  _atom_site_type_symbol
  _atom_site_label
  _atom_site_symmetry_multiplicity
  _atom_site_fract_x
  _atom_site_fract_y
  _atom_site_fract_z
  _atom_site_occupancy
  O   O1        1.0  0.11949531300646574  0.6776935325826323  0.23501125633923117  1.0000
  Ba  Ba1       1.0  0.20803896914184652  0.07847130725495893  0.03074739891985948  1.0000
  O   O2        1.0  0.513021431322428  0.3026500415735957  0.40139954592170896  1.0000
  Ti  Ti1       1.0  0.5594808298573563  0.5673812629954563  0.2647522318726277  1.0000
  O   O3        1.0  0.9028141372122476  0.4432654130234991  0.6398803860691107  1.0000
  Ba  Ba2       1.0  0.9646817805543622  0.010074689971333456  0.5170191198212656  1.0000
  O   O4        1.0  0.6933925072382547  0.39889123899182044  0.06481974113162456  1.0000
  O   O5        1.0  0.30213758258879275  0.4913700103231964  0.8430001456060618  1.0000
  Ti  Ti2       1.0  0.7918619995164877  0.563812126516377  0.8635462693803986  1.0000
  Ti  Ti3       1.0  0.42027932004637275  0.4842899582870183  0.6048623834943302  1.0000
  O   O6        1.0  0.4894557990112091  0.7420919834540305  0.47396214680232834  1.0000
  O   O7        1.0  0.7909981472189027  0.8736639173231482  0.8645954130116662  1.0000
