data_image329
_chemical_formula_structural       OBaTi2OBaO2
_chemical_formula_sum              "O4 Ba2 Ti2"
_cell_length_a       3.798575497606316
_cell_length_b       3.8062722894232306
_cell_length_c       10.912925720214844
_cell_angle_alpha    89.93558699031504
_cell_angle_beta     89.88267352060144
_cell_angle_gamma    90.01370386397393

_space_group_name_H-M_alt    "P 1"
_space_group_IT_number       1

loop_
  _space_group_symop_operation_xyz
  'x, y, z'

loop_
  _atom_site_type_symbol
  _atom_site_label
  _atom_site_symmetry_multiplicity
  _atom_site_fract_x
  _atom_site_fract_y
  _atom_site_fract_z
  _atom_site_occupancy
  O   O1        1.0  0.5098167178995263  0.3956244485534708  0.9346905698152843  1.0000
  Ba  Ba1       1.0  0.5114213736737262  0.8962663744910323  0.6276923247082966  1.0000
  Ti  Ti1       1.0  0.01021432159793998  0.3955708144046625  0.8679849785506722  1.0000
  Ti  Ti2       1.0  0.5094446533647121  0.895427656240794  8.547003883085935e-05  1.0000
  O   O2        1.0  0.011082797218708725  0.39600777680712745  0.6957124577226221  1.0000
  Ba  Ba2       1.0  0.008279098195085868  0.394911201736516  0.24011546550987922  1.0000
  O   O3        1.0  0.009826651992573451  0.8953810359528062  0.9337569000460975  1.0000
  O   O4        1.0  0.5086428316981769  0.8951269250450214  0.1724034078184907  1.0000
