data_image309
_chemical_formula_structural       BaTiBaOBaOBaO2TiO2
_chemical_formula_sum              "Ba4 Ti2 O6"
_cell_length_a       4.041975030607402
_cell_length_b       4.041995116073517
_cell_length_c       13.963144302368164
_cell_angle_alpha    89.98952499492624
_cell_angle_beta     90.00387522180456
_cell_angle_gamma    90.04532081174762

_space_group_name_H-M_alt    "P 1"
_space_group_IT_number       1

loop_
  _space_group_symop_operation_xyz
  'x, y, z'

loop_
  _atom_site_type_symbol
  _atom_site_label
  _atom_site_symmetry_multiplicity
  _atom_site_fract_x
  _atom_site_fract_y
  _atom_site_fract_z
  _atom_site_occupancy
  Ba  Ba1       1.0  0.6474492727263788  0.3653487212191681  0.7654237114325174  1.0000
  Ti  Ti1       1.0  0.14744645663152686  0.8652474483168376  0.8917938736769414  1.0000
  Ba  Ba2       1.0  0.6473814612167866  0.3651907231583758  0.05006750972395969  1.0000
  O   O1        1.0  0.14743869980633673  0.865353882129144  0.7517903209589092  1.0000
  Ba  Ba3       1.0  0.14740389711705312  0.8653085325404611  0.5500526646497105  1.0000
  O   O2        1.0  0.1473168432870689  0.3653495222162718  0.19560565096350804  1.0000
  Ba  Ba4       1.0  0.6473198881888096  0.3653010448049872  0.33468800122137754  1.0000
  O   O3        1.0  0.6473096867473076  0.86534778278652  0.1955425434011113  1.0000
  O   O4        1.0  0.6474371009846477  0.8652304522012931  0.9045669496916107  1.0000
  Ti  Ti2       1.0  0.14731705044528626  0.8653248728937253  0.20834406441364045  1.0000
  O   O5        1.0  0.1473411428339848  0.8652293808767402  0.3483834270943362  1.0000
  O   O6        1.0  0.14743052974387894  0.3652354739756261  0.9044849439439856  1.0000
