data_image163
_chemical_formula_structural       TiBa2OTiO5
_chemical_formula_sum              "Ti2 Ba2 O6"
_cell_length_a       4.01765990284763
_cell_length_b       6.240131060286557
_cell_length_c       7.982207775115967
_cell_angle_alpha    112.70270891850244
_cell_angle_beta     90.05922024421375
_cell_angle_gamma    90.01067808782201

_space_group_name_H-M_alt    "P 1"
_space_group_IT_number       1

loop_
  _space_group_symop_operation_xyz
  'x, y, z'

loop_
  _atom_site_type_symbol
  _atom_site_label
  _atom_site_symmetry_multiplicity
  _atom_site_fract_x
  _atom_site_fract_y
  _atom_site_fract_z
  _atom_site_occupancy
  Ti  Ti1       1.0  0.8219327036763657  0.16249913287720463  0.5414643452342903  1.0000
  Ba  Ba1       1.0  0.321865417077137  0.5652547948865401  0.34339628147685375  1.0000
  Ba  Ba2       1.0  0.8224438312461316  0.9255901434453639  0.06386288722305292  1.0000
  O   O1        1.0  0.32193519899179024  0.18721888775616843  0.5963883111805498  1.0000
  Ti  Ti2       1.0  0.32238140573754587  0.3277768246313613  0.8659694801888246  1.0000
  O   O2        1.0  0.8222825455228046  0.302090315435307  0.8111226290921849  1.0000
  O   O3        1.0  0.32256735742259013  0.1758077941111163  0.016509087738323876  1.0000
  O   O4        1.0  0.8218594228166156  0.3158214188848447  0.3919659464775158  1.0000
  O   O5        1.0  0.8217743185964417  0.8608907516643327  0.39137257409212745  1.0000
  O   O6        1.0  0.32240994762300357  0.6297421861236612  0.014986633785022728  1.0000
