data_image202
_chemical_formula_structural       BaTiO3BaTiO3
_chemical_formula_sum              "Ba2 Ti2 O6"
_cell_length_a       4.008927401936649
_cell_length_b       5.747099225564706
_cell_length_c       6.592534542083741
_cell_angle_alpha    115.89686200570584
_cell_angle_beta     90.00963307124667
_cell_angle_gamma    90.04965798095196

_space_group_name_H-M_alt    "P 1"
_space_group_IT_number       1

loop_
  _space_group_symop_operation_xyz
  'x, y, z'

loop_
  _atom_site_type_symbol
  _atom_site_label
  _atom_site_symmetry_multiplicity
  _atom_site_fract_x
  _atom_site_fract_y
  _atom_site_fract_z
  _atom_site_occupancy
  Ba  Ba1       1.0  0.5988296992830473  0.27344401306216654  0.6584976996533247  1.0000
  Ti  Ti1       1.0  0.11652263798948118  0.5076672618202515  0.13025357522750783  1.0000
  O   O1        1.0  0.0828690324833684  0.6328869363631111  0.8791521298759674  1.0000
  O   O2        1.0  0.08250398477408075  0.13275394721304362  0.8789921183934006  1.0000
  O   O3        1.0  0.08484839431710048  0.860868881768794  0.37915031351924444  1.0000
  Ba  Ba2       1.0  0.598991561203228  0.992283996411497  0.09976444214979341  1.0000
  Ti  Ti2       1.0  0.11641754416200141  0.7581505791096667  0.6281945560053566  1.0000
  O   O4        1.0  0.5728180444297877  0.7705389845941764  0.6535885334475033  1.0000
  O   O5        1.0  0.5728809721893499  0.49513643232781374  0.10466404783138668  1.0000
  O   O6        1.0  0.08434404455082248  0.40474607980999006  0.37901613969565195  1.0000
