data_image232
_chemical_formula_structural       BaO2BaOBaO2TiBaOTiO4
_chemical_formula_sum              "Ba4 O10 Ti2"
_cell_length_a       5.632172727024036
_cell_length_b       5.643598293081652
_cell_length_c       8.418079376220703
_cell_angle_alpha    108.41925823144328
_cell_angle_beta     89.36416656067496
_cell_angle_gamma    90.28203464923088

_space_group_name_H-M_alt    "P 1"
_space_group_IT_number       1

loop_
  _space_group_symop_operation_xyz
  'x, y, z'

loop_
  _atom_site_type_symbol
  _atom_site_label
  _atom_site_symmetry_multiplicity
  _atom_site_fract_x
  _atom_site_fract_y
  _atom_site_fract_z
  _atom_site_occupancy
  Ba  Ba1       1.0  0.8858372940138131  0.17077856005373343  0.8020154163226901  1.0000
  O   O1        1.0  0.37288964333561114  0.1554878054148134  0.8091953291371589  1.0000
  O   O2        1.0  0.9789389421880472  0.8403652003289974  0.9585529051213552  1.0000
  Ba  Ba2       1.0  0.40336045228390194  0.43606023285911527  0.27777841543588483  1.0000
  O   O3        1.0  0.9036204344969633  0.4382930366087596  0.293543160145747  1.0000
  Ba  Ba3       1.0  0.3857694616222025  0.6706727436754046  0.8019244258346476  1.0000
  O   O4        1.0  0.14964037517729728  0.2986858534114156  0.5406731727421988  1.0000
  O   O5        1.0  0.14727777527896868  0.8031048821830649  0.549288782644562  1.0000
  Ti  Ti1       1.0  0.4014084228151214  0.06127741636377975  0.5235061373389533  1.0000
  Ba  Ba4       1.0  0.9032964257741146  0.9361000304198982  0.277757114616529  1.0000
  O   O6        1.0  0.4789980652414702  0.34064067910898926  0.9586358972319952  1.0000
  Ti  Ti2       1.0  0.9014393694879971  0.5613445442561469  0.5235189178186734  1.0000
  O   O7        1.0  0.8725071988690878  0.655659658748173  0.8090983692256726  1.0000
  O   O8        1.0  0.6473198131636302  0.3029488144725251  0.549102727539643  1.0000
  O   O9        1.0  0.6495870907300927  0.7985924382944075  0.5405395644720211  1.0000
  O   O10       1.0  0.4033057281778162  0.9381492745882536  0.2935456114222958  1.0000
