data_image493
_chemical_formula_structural       O2TiBaTiO4Ba
_chemical_formula_sum              "O6 Ti2 Ba2"
_cell_length_a       5.533783073069394
_cell_length_b       5.536569168765215
_cell_length_c       4.613300323486328
_cell_angle_alpha    90.00772061853306
_cell_angle_beta     90.01163431651108
_cell_angle_gamma    90.07270986209939

_space_group_name_H-M_alt    "P 1"
_space_group_IT_number       1

loop_
  _space_group_symop_operation_xyz
  'x, y, z'

loop_
  _atom_site_type_symbol
  _atom_site_label
  _atom_site_symmetry_multiplicity
  _atom_site_fract_x
  _atom_site_fract_y
  _atom_site_fract_z
  _atom_site_occupancy
  O   O1        1.0  0.8354460936551745  0.4797510780851228  0.28654142128792875  1.0000
  O   O2        1.0  0.33547415484410364  0.4797493972517448  0.28624861706014537  1.0000
  Ti  Ti1       1.0  0.08564548623386709  0.7300517885077767  0.21301133531877695  1.0000
  Ba  Ba1       1.0  0.08535802552106984  0.22987691561511658  0.7190565542725272  1.0000
  Ti  Ti2       1.0  0.585487252583502  0.23011976922028712  0.21303647097547404  1.0000
  O   O3        1.0  0.8354503059133817  0.9798102914321636  0.28566336060625513  1.0000
  O   O4        1.0  0.5851836020471485  0.22992969564790927  0.8242805333876114  1.0000
  O   O5        1.0  0.3354369800607782  0.9796887094405969  0.2864381224263613  1.0000
  O   O6        1.0  0.08543434889638629  0.7297549033155091  0.8242554799015248  1.0000
  Ba  Ba2       1.0  0.5856549303900781  0.7299794222218856  0.7191235497116426  1.0000
