data_image840
_chemical_formula_structural       TiOBaO
_chemical_formula_sum              "Ti1 O2 Ba1"
_cell_length_a       3.284099972937484
_cell_length_b       3.2818948107268633
_cell_length_c       6.28289794921875
_cell_angle_alpha    74.92273485593554
_cell_angle_beta     74.89642477052605
_cell_angle_gamma    60.12344484799608

_space_group_name_H-M_alt    "P 1"
_space_group_IT_number       1

loop_
  _space_group_symop_operation_xyz
  'x, y, z'

loop_
  _atom_site_type_symbol
  _atom_site_label
  _atom_site_symmetry_multiplicity
  _atom_site_fract_x
  _atom_site_fract_y
  _atom_site_fract_z
  _atom_site_occupancy
  Ti  Ti1       1.0  0.8300286861578048  0.41264631878133273  0.435821638821459  1.0000
  O   O1        1.0  0.10762157170867008  0.6903148798493621  0.6025631569563031  1.0000
  Ba  Ba1       1.0  0.3297592508408013  0.9122820976055303  0.9359316361470235  1.0000
  O   O2        1.0  0.5520822965373884  0.13474538859095822  0.2692864364839276  1.0000
