data_image45
_chemical_formula_structural       BaTiO3BaTi2OTiO6
_chemical_formula_sum              "Ba2 Ti4 O10"
_cell_length_a       3.8219075111763297
_cell_length_b       6.062401623329627
_cell_length_c       10.170272827148438
_cell_angle_alpha    90.33759146755037
_cell_angle_beta     90.11441500547123
_cell_angle_gamma    90.07489552784031

_space_group_name_H-M_alt    "P 1"
_space_group_IT_number       1

loop_
  _space_group_symop_operation_xyz
  'x, y, z'

loop_
  _atom_site_type_symbol
  _atom_site_label
  _atom_site_symmetry_multiplicity
  _atom_site_fract_x
  _atom_site_fract_y
  _atom_site_fract_z
  _atom_site_occupancy
  Ba  Ba1       1.0  0.5937242486633414  0.17518488081160552  0.4676341484107948  1.0000
  Ti  Ti1       1.0  0.07118549095569572  0.7077300070513577  0.6371590136673158  1.0000
  O   O1        1.0  0.12226375292580878  0.6301962948474819  0.10824107606783326  1.0000
  O   O2        1.0  0.07858477439170881  0.40989753432643783  0.6076101390631847  1.0000
  O   O3        1.0  0.5839957685872352  0.24623131121912264  0.1578320846538229  1.0000
  Ba  Ba2       1.0  0.6074047736801932  0.8653213521334192  0.9685488269675783  1.0000
  Ti  Ti2       1.0  0.13028048142750173  0.332512224245028  0.13617842645338368  1.0000
  Ti  Ti3       1.0  0.13089094255769385  0.32746223396256274  0.8000987136845482  1.0000
  O   O4        1.0  0.11437155562331973  0.8509598875352086  0.47011531290095626  1.0000
  Ti  Ti4       1.0  0.07038333983024876  0.7127924532610588  0.30112144141328806  1.0000
  O   O5        1.0  0.07772797677071693  0.4152307169839644  0.3288708109081177  1.0000
  O   O6        1.0  0.12418805304312398  0.6252173957656453  0.8294287530780268  1.0000
  O   O7        1.0  0.6169292616339066  0.8012117385620023  0.2795505588548928  1.0000
  O   O8        1.0  0.08699393667820168  0.18940409399455244  0.968281730543603  1.0000
  O   O9        1.0  0.5839484556755924  0.23984007012167086  0.778106141140811  1.0000
  O   O10       1.0  0.6178086491973812  0.7931221538249896  0.6592804744506859  1.0000
