data_image115
_chemical_formula_structural       OBaO2BaTiBaOTiO3
_chemical_formula_sum              "O7 Ba3 Ti2"
_cell_length_a       4.068684469037477
_cell_length_b       4.058912815046669
_cell_length_c       11.073750495910645
_cell_angle_alpha    100.59297720429208
_cell_angle_beta     100.54629949362746
_cell_angle_gamma    90.04045759454787

_space_group_name_H-M_alt    "P 1"
_space_group_IT_number       1

loop_
  _space_group_symop_operation_xyz
  'x, y, z'

loop_
  _atom_site_type_symbol
  _atom_site_label
  _atom_site_symmetry_multiplicity
  _atom_site_fract_x
  _atom_site_fract_y
  _atom_site_fract_z
  _atom_site_occupancy
  O   O1        1.0  0.24773202722315907  0.379024479845846  0.2149298185939715  1.0000
  Ba  Ba1       1.0  0.9500263610170502  0.5988038024336791  0.6598601571074437  1.0000
  O   O2        1.0  0.831035206572535  0.4693549091401086  0.3985622089489214  1.0000
  O   O3        1.0  0.5497617005835458  0.7059955454074183  0.8372168312672809  1.0000
  Ba  Ba2       1.0  0.13145935571935985  0.7882400163227454  0.02613134591662473  1.0000
  Ti  Ti1       1.0  0.5241916677846953  0.1747556713818234  0.8365111124721932  1.0000
  Ba  Ba3       1.0  0.3143888523140849  0.9772265462197144  0.39232693959309367  1.0000
  O   O4        1.0  0.7368519946106385  0.870671165817273  0.2150392434629632  1.0000
  Ti  Ti2       1.0  0.7122586035481059  0.40149031825928  0.2157150180224087  1.0000
  O   O5        1.0  0.6479893371100724  0.2883909399242407  0.026149169744071506  1.0000
  O   O6        1.0  0.4608003347916215  0.1073164020167853  0.6536706137813522  1.0000
  O   O7        1.0  0.06047400002265768  0.19741725355963635  0.8373173322582578  1.0000
