data_image86
_chemical_formula_structural       BaOTiO
_chemical_formula_sum              "Ba1 O2 Ti1"
_cell_length_a       3.313704924245226
_cell_length_b       3.314043182074502
_cell_length_c       6.316526889801025
_cell_angle_alpha    74.83115647163939
_cell_angle_beta     74.80606919889742
_cell_angle_gamma    60.034263287695275

_space_group_name_H-M_alt    "P 1"
_space_group_IT_number       1

loop_
  _space_group_symop_operation_xyz
  'x, y, z'

loop_
  _atom_site_type_symbol
  _atom_site_label
  _atom_site_symmetry_multiplicity
  _atom_site_fract_x
  _atom_site_fract_y
  _atom_site_fract_z
  _atom_site_occupancy
  Ba  Ba1       1.0  0.7294140583228372  0.681576282334633  0.09413631206668245  1.0000
  O   O1        1.0  0.9511370721261168  0.9034073791137422  0.42901318517781806  1.0000
  Ti  Ti1       1.0  0.22931574605543462  0.1817016256347356  0.5944180521000889  1.0000
  O   O2        1.0  0.5076165493712437  0.46003478268126285  0.7594011750411235  1.0000
