data_image244
_chemical_formula_structural       Ba2OTiO5Ti
_chemical_formula_sum              "Ba2 O6 Ti2"
_cell_length_a       5.091072226201101
_cell_length_b       5.860962308855466
_cell_length_c       5.858414649963379
_cell_angle_alpha    120.22850038351032
_cell_angle_beta     90.09044102937042
_cell_angle_gamma    90.06842734958268

_space_group_name_H-M_alt    "P 1"
_space_group_IT_number       1

loop_
  _space_group_symop_operation_xyz
  'x, y, z'

loop_
  _atom_site_type_symbol
  _atom_site_label
  _atom_site_symmetry_multiplicity
  _atom_site_fract_x
  _atom_site_fract_y
  _atom_site_fract_z
  _atom_site_occupancy
  Ba  Ba1       1.0  0.9666785530829166  0.7689541474959021  0.78731720713842  1.0000
  Ba  Ba2       1.0  0.4666418485400719  0.4358874327102368  0.12108142453949297  1.0000
  O   O1        1.0  0.46671374900750767  0.9522895127471696  0.15485156231204084  1.0000
  Ti  Ti1       1.0  0.7169062957955817  0.10243847145123185  0.4540875633893663  1.0000
  O   O2        1.0  0.4676478717486827  0.40166663657451124  0.6043216908315766  1.0000
  O   O3        1.0  0.4672957292468738  0.9532803000694692  0.6034229001796727  1.0000
  O   O4        1.0  0.9667663246733539  0.803067002733526  0.3041001168616105  1.0000
  O   O5        1.0  0.9677573998750079  0.252551647944036  0.7535590209296946  1.0000
  O   O6        1.0  0.9671685592444779  0.2514416218701144  0.3048845328733267  1.0000
  Ti  Ti2       1.0  0.2168958258725148  0.10235997468530467  0.4542899629923635  1.0000
