data_image129
_chemical_formula_structural       Ba2OBaOBaTiOTiOBaO5
_chemical_formula_sum              "Ba5 O9 Ti2"
_cell_length_a       3.8640970478226104
_cell_length_b       6.682368863019015
_cell_length_c       11.3299560546875
_cell_angle_alpha    84.50461693565573
_cell_angle_beta     90.06885764371695
_cell_angle_gamma    90.08902718850456

_space_group_name_H-M_alt    "P 1"
_space_group_IT_number       1

loop_
  _space_group_symop_operation_xyz
  'x, y, z'

loop_
  _atom_site_type_symbol
  _atom_site_label
  _atom_site_symmetry_multiplicity
  _atom_site_fract_x
  _atom_site_fract_y
  _atom_site_fract_z
  _atom_site_occupancy
  Ba  Ba1       1.0  0.5436307300800188  0.0705249208485999  0.484918500197794  1.0000
  Ba  Ba2       1.0  0.5407941009327453  0.7161172082289093  0.017579674246510787  1.0000
  O   O1        1.0  0.542677240767924  0.32496015508597953  0.04455868841066306  1.0000
  Ba  Ba3       1.0  0.5385722225482164  0.5512023881849164  0.5752314882582303  1.0000
  O   O2        1.0  0.04196175119635572  0.5847865362211725  0.7579462656314252  1.0000
  Ba  Ba4       1.0  0.5452706829416556  0.2504581565065488  0.8270480247092199  1.0000
  Ti  Ti1       1.0  0.03975303015059741  0.6771576782405865  0.3304293568844174  1.0000
  O   O3        1.0  0.0412427544764853  0.7914330259031239  0.4893652600932408  1.0000
  Ti  Ti2       1.0  0.04239451301586789  0.8725450588857998  0.7377950404701182  1.0000
  O   O4        1.0  0.04380446145178809  0.15273404953384387  0.6491549316748001  1.0000
  Ba  Ba5       1.0  0.042684149323323047  0.1879756750899518  0.16465991427669086  1.0000
  O   O5        1.0  0.5425450680293783  0.8722326879638644  0.7038080508302418  1.0000
  O   O6        1.0  0.5407239380163478  0.7368666300382235  0.3405235144163726  1.0000
  O   O7        1.0  0.04083015169031655  0.773501347402916  0.1667202351404347  1.0000
  O   O8        1.0  0.04261367140673237  0.9549870407818728  0.8887106061997986  1.0000
  O   O9        1.0  0.039943658736839784  0.39999735411047344  0.3635778512536405  1.0000
