data_image38
_chemical_formula_structural       Ba2Ti2O2BaO2BaOTiO6
_chemical_formula_sum              "Ba4 Ti3 O11"
_cell_length_a       5.789432873022482
_cell_length_b       5.752561049732236
_cell_length_c       9.633316040039062
_cell_angle_alpha    106.00813427438841
_cell_angle_beta     107.46750730784319
_cell_angle_gamma    90.11567851703607

_space_group_name_H-M_alt    "P 1"
_space_group_IT_number       1

loop_
  _space_group_symop_operation_xyz
  'x, y, z'

loop_
  _atom_site_type_symbol
  _atom_site_label
  _atom_site_symmetry_multiplicity
  _atom_site_fract_x
  _atom_site_fract_y
  _atom_site_fract_z
  _atom_site_occupancy
  Ba  Ba1       1.0  0.8483100016623064  0.5396043758340778  0.0477226274218048  1.0000
  Ba  Ba2       1.0  0.5948315053485941  0.26047146456258313  0.5409838489372416  1.0000
  Ti  Ti1       1.0  0.4765024492575055  0.6513068614206685  0.30492638401818434  1.0000
  Ti  Ti2       1.0  0.9667314494325113  0.1458624306498441  0.2862803934093848  1.0000
  O   O1        1.0  0.7119776025128859  0.8649112111258402  0.2831961361607841  1.0000
  O   O2        1.0  0.5795784883163245  0.7446056094883539  0.5087719785882929  1.0000
  Ba  Ba3       1.0  0.09566720275339011  0.7327020733972754  0.5419176199540209  1.0000
  O   O3        1.0  0.4687327407514291  0.5315461512718253  0.7766216907382649  1.0000
  O   O4        1.0  0.8629896864024516  0.036579755358442975  0.07553225988098367  1.0000
  Ba  Ba4       1.0  0.3552721532638277  0.018484817738313477  0.06206620648510307  1.0000
  O   O5        1.0  0.22177479094752067  0.8641349160349695  0.28340442171849556  1.0000
  Ti  Ti3       1.0  0.2369921144690968  0.39416624113666077  0.8250101236017687  1.0000
  O   O6        1.0  0.9572075676080622  0.5311782545739765  0.7768883642559613  1.0000
  O   O7        1.0  0.7210199178453146  0.3760547492184963  0.29460424063667556  1.0000
  O   O8        1.0  0.22425304625022893  0.376272945052081  0.2947818728606687  1.0000
  O   O9        1.0  0.21958657579904584  0.06774075750851927  0.7911645939648767  1.0000
  O   O10       1.0  0.0802670830586956  0.21110315884093236  0.5104856331962555  1.0000
  O   O11       1.0  0.3445573386317595  0.5022984250572167  0.03936924759536514  1.0000
