data_image293
_chemical_formula_structural       BaOBaO3Ti2O
_chemical_formula_sum              "Ba2 O5 Ti2"
_cell_length_a       3.702059330426102
_cell_length_b       6.276331612117441
_cell_length_c       7.919955730438232
_cell_angle_alpha    70.48553643990874
_cell_angle_beta     76.83290742408796
_cell_angle_gamma    73.29213696597257

_space_group_name_H-M_alt    "P 1"
_space_group_IT_number       1

loop_
  _space_group_symop_operation_xyz
  'x, y, z'

loop_
  _atom_site_type_symbol
  _atom_site_label
  _atom_site_symmetry_multiplicity
  _atom_site_fract_x
  _atom_site_fract_y
  _atom_site_fract_z
  _atom_site_occupancy
  Ba  Ba1       1.0  0.5881391858522806  0.7885606491142763  0.18826713599782866  1.0000
  O   O1        1.0  0.9261002388314081  0.1779478634113164  0.12605852347224233  1.0000
  Ba  Ba2       1.0  0.7306084832239446  0.2185632853715978  0.4719478348516773  1.0000
  O   O2        1.0  0.16459676516323143  0.9829450906426349  0.8367338386423864  1.0000
  O   O3        1.0  0.1562262989278995  0.5069056383161467  0.33320169502091135  1.0000
  O   O4        1.0  0.48499159635857164  0.37543147455794573  0.8098553683730029  1.0000
  Ti  Ti1       1.0  0.995170846583799  0.26992253186775456  0.8934654801402719  1.0000
  Ti  Ti2       1.0  0.3411945559896394  0.7218572289723105  0.745247821308581  1.0000
  O   O5        1.0  0.38935961980496764  0.8564382823722073  0.5135198144095854  1.0000
