data_image642
_chemical_formula_structural       OTiBaOBaTi2O5
_chemical_formula_sum              "O7 Ti3 Ba2"
_cell_length_a       3.9827888427251055
_cell_length_b       4.153800324015654
_cell_length_c       10.306486129760742
_cell_angle_alpha    91.45964813508303
_cell_angle_beta     101.20502315311542
_cell_angle_gamma    90.20679326874033

_space_group_name_H-M_alt    "P 1"
_space_group_IT_number       1

loop_
  _space_group_symop_operation_xyz
  'x, y, z'

loop_
  _atom_site_type_symbol
  _atom_site_label
  _atom_site_symmetry_multiplicity
  _atom_site_fract_x
  _atom_site_fract_y
  _atom_site_fract_z
  _atom_site_occupancy
  O   O1        1.0  0.07782288099621917  0.13974346241067526  0.06458568016009528  1.0000
  Ti  Ti1       1.0  0.4705464152515644  0.6462976666971018  0.8484333341553291  1.0000
  Ba  Ba1       1.0  0.6725189702057848  0.10855708821228807  0.25303311914650845  1.0000
  O   O2        1.0  0.377592359892976  0.6375548479277414  0.6626220636626872  1.0000
  Ba  Ba2       1.0  0.8680672027705976  0.1389437283926524  0.6436399599841668  1.0000
  Ti  Ti2       1.0  0.0764598443457926  0.5638094843762894  0.06081804294559251  1.0000
  Ti  Ti3       1.0  0.271265043380386  0.6406740152299256  0.45037387985925353  1.0000
  O   O3        1.0  0.27500807150506096  0.10875307960815783  0.457356951949667  1.0000
  O   O4        1.0  0.7745287456215074  0.6172968764250243  0.45666812312544974  1.0000
  O   O5        1.0  0.5687645214451388  0.6246224749337208  0.045254285218447994  1.0000
  O   O6        1.0  0.1737827286080113  0.6193259931321718  0.2555485746509165  1.0000
  O   O7        1.0  0.9751447396475924  0.6343465365882499  0.8577229318705377  1.0000
