data_image935
_chemical_formula_structural       Ba2TiOTiO3
_chemical_formula_sum              "Ba2 Ti2 O4"
_cell_length_a       3.8021190454550124
_cell_length_b       3.808647359170706
_cell_length_c       10.994030952453613
_cell_angle_alpha    89.96575593601503
_cell_angle_beta     89.99294691904308
_cell_angle_gamma    89.99774171188452

_space_group_name_H-M_alt    "P 1"
_space_group_IT_number       1

loop_
  _space_group_symop_operation_xyz
  'x, y, z'

loop_
  _atom_site_type_symbol
  _atom_site_label
  _atom_site_symmetry_multiplicity
  _atom_site_fract_x
  _atom_site_fract_y
  _atom_site_fract_z
  _atom_site_occupancy
  Ba  Ba1       1.0  0.1659250830301456  0.37541338611395997  0.5564031886033061  1.0000
  Ba  Ba2       1.0  0.6654493436774209  0.8749811791078526  0.1613094174083607  1.0000
  Ti  Ti1       1.0  0.16555951795454818  0.3753049102346294  0.9233147311647099  1.0000
  O   O1        1.0  0.165462864809818  0.3751326352557165  0.09429208625035082  1.0000
  Ti  Ti2       1.0  0.665784305123261  0.8750914114901753  0.79428126843495  1.0000
  O   O2        1.0  0.6655826137356957  0.37498542412004365  0.8583231852265221  1.0000
  O   O3        1.0  0.6659106396429788  0.8752655029404798  0.6232721385219783  1.0000
  O   O4        1.0  0.16575767472062752  0.8754133210905471  0.8591795841267351  1.0000
