data_image460
_chemical_formula_structural       BaOTiO3BaTiO3
_chemical_formula_sum              "Ba2 O7 Ti2"
_cell_length_a       3.960352850273841
_cell_length_b       3.9631280868679855
_cell_length_c       11.160604476928711
_cell_angle_alpha    100.24316889983803
_cell_angle_beta     100.20697567877698
_cell_angle_gamma    90.13000165864803

_space_group_name_H-M_alt    "P 1"
_space_group_IT_number       1

loop_
  _space_group_symop_operation_xyz
  'x, y, z'

loop_
  _atom_site_type_symbol
  _atom_site_label
  _atom_site_symmetry_multiplicity
  _atom_site_fract_x
  _atom_site_fract_y
  _atom_site_fract_z
  _atom_site_occupancy
  Ba  Ba1       1.0  0.9134672905211383  0.3387684169062021  0.48502976081001836  1.0000
  O   O1        1.0  0.32873858116267235  0.2542050064422026  0.3160073388224569  1.0000
  Ti  Ti1       1.0  0.3172074033578814  0.7417975801589591  0.29190916796609395  1.0000
  O   O2        1.0  0.828600471399529  0.7540625253622382  0.3160533136958266  1.0000
  O   O3        1.0  0.13594891096088627  0.061374389917245024  0.9301559076497176  1.0000
  O   O4        1.0  0.23231064592558806  0.6577617494762916  0.12305182953555448  1.0000
  Ba  Ba2       1.0  0.5513291260622344  0.9767730491807035  0.7610988217171984  1.0000
  Ti  Ti2       1.0  0.14783868818281576  0.5736762252175872  0.9541385339326677  1.0000
  O   O5        1.0  0.6358900523645956  0.5614756015579364  0.930043107631964  1.0000
  O   O6        1.0  0.4218684555332003  0.8473566377032064  0.5019298171616292  1.0000
  O   O7        1.0  0.04290231026695891  0.46823967913000336  0.7442959371293012  1.0000
