data_image194
_chemical_formula_structural       TiBaOBaO3TiOBaO2
_chemical_formula_sum              "Ti2 Ba3 O7"
_cell_length_a       3.962724974699603
_cell_length_b       4.04109103868506
_cell_length_c       11.466078758239746
_cell_angle_alpha    100.17180037547793
_cell_angle_beta     90.03562194107808
_cell_angle_gamma    90.02848439342358

_space_group_name_H-M_alt    "P 1"
_space_group_IT_number       1

loop_
  _space_group_symop_operation_xyz
  'x, y, z'

loop_
  _atom_site_type_symbol
  _atom_site_label
  _atom_site_symmetry_multiplicity
  _atom_site_fract_x
  _atom_site_fract_y
  _atom_site_fract_z
  _atom_site_occupancy
  Ti  Ti1       1.0  0.48228638904933224  0.5016570379443261  0.542407355051311  1.0000
  Ba  Ba1       1.0  0.9824963604701081  0.9104337988888344  0.359179605874893  1.0000
  O   O1        1.0  0.4820154653525831  0.23221156216553693  0.0024880221243435614  1.0000
  Ba  Ba2       1.0  0.9828269307667623  0.08606858445006028  0.7103645719279837  1.0000
  O   O2        1.0  0.982307005687412  0.31939504509536193  0.17673245470968474  1.0000
  O   O3        1.0  0.48231497689274416  0.8192608820382257  0.1762677779644461  1.0000
  O   O4        1.0  0.48276926595669345  0.002266671552356233  0.5421035256785768  1.0000
  Ti  Ti2       1.0  0.48257762735577137  0.31865738325534065  0.1759403514374533  1.0000
  O   O5        1.0  0.9829150894909746  0.5018910934557161  0.5416504106935366  1.0000
  Ba  Ba3       1.0  0.9821532352739267  0.7347426567891238  0.00794374795504665  1.0000
  O   O6        1.0  0.4831690942633843  0.5890127094942837  0.7159179501817577  1.0000
  O   O7        1.0  0.4825866795786939  0.4106522017153941  0.35922645420345095  1.0000
