data_image23
_chemical_formula_structural       BaTiO2BaOBaTiOBaO4
_chemical_formula_sum              "Ba4 Ti2 O8"
_cell_length_a       6.104401368343101
_cell_length_b       6.445626503596195
_cell_length_c       8.051535606384277
_cell_angle_alpha    89.89088340745944
_cell_angle_beta     89.96391861666251
_cell_angle_gamma    58.58079944455373

_space_group_name_H-M_alt    "P 1"
_space_group_IT_number       1

loop_
  _space_group_symop_operation_xyz
  'x, y, z'

loop_
  _atom_site_type_symbol
  _atom_site_label
  _atom_site_symmetry_multiplicity
  _atom_site_fract_x
  _atom_site_fract_y
  _atom_site_fract_z
  _atom_site_occupancy
  Ba  Ba1       1.0  0.7289062867119567  0.4031189166124971  0.747049241771307  1.0000
  Ti  Ti1       1.0  0.025956615815886062  0.7296917600077715  0.9969509212109683  1.0000
  O   O1        1.0  0.23148892228284407  0.07259722516088994  0.31603329076281883  1.0000
  O   O2        1.0  0.6863160833810416  0.700532760377514  0.4969280176896678  1.0000
  Ba  Ba2       1.0  0.7288115372291909  0.40324634905956414  0.24712974887557865  1.0000
  O   O3        1.0  0.7661160647793807  0.6613429951537346  0.996851596543383  1.0000
  Ba  Ba3       1.0  0.09643363022762247  0.7440426436246483  0.4968990588476167  1.0000
  Ti  Ti2       1.0  0.43119786855878595  0.02757899762983239  0.4970108556972434  1.0000
  O   O4        1.0  0.6052677021089932  0.19347925679482034  0.4970352816784335  1.0000
  Ba  Ba4       1.0  0.35979518574075287  0.11021657656964769  0.9969783295585902  1.0000
  O   O5        1.0  0.2317172359074987  0.07253544570084863  0.6780735386778871  1.0000
  O   O6        1.0  0.8577097985775394  0.06766734018448953  0.9970438541075206  1.0000
  O   O7        1.0  0.22418596811919034  0.5754398194392368  0.1783556218345147  1.0000
  O   O8        1.0  0.22426069389759212  0.5754841773412122  0.8157578599126036  1.0000
