data_image39
_chemical_formula_structural       OBaTiO
_chemical_formula_sum              "O2 Ba1 Ti1"
_cell_length_a       4.06325385822046
_cell_length_b       4.0714665598568915
_cell_length_c       6.713697910308839
_cell_angle_alpha    72.36706324551893
_cell_angle_beta     72.40899894790529
_cell_angle_gamma    60.05054606168209

_space_group_name_H-M_alt    "P 1"
_space_group_IT_number       1

loop_
  _space_group_symop_operation_xyz
  'x, y, z'

loop_
  _atom_site_type_symbol
  _atom_site_label
  _atom_site_symmetry_multiplicity
  _atom_site_fract_x
  _atom_site_fract_y
  _atom_site_fract_z
  _atom_site_occupancy
  O   O1        1.0  0.33849315045003087  0.2070312461280264  0.9353810396077334  1.0000
  Ba  Ba1       1.0  0.9362025560638741  0.8040557912996573  0.1426388361209877  1.0000
  Ti  Ti1       1.0  0.43518815380888826  0.3034321788370872  0.6426451540021623  1.0000
  O   O2        1.0  0.5340287463114644  0.40117175330759897  0.3499091209047905  1.0000
