data_image148
_chemical_formula_structural       O2BaTiO2
_chemical_formula_sum              "O4 Ba1 Ti1"
_cell_length_a       3.908613386622059
_cell_length_b       4.338487114510879
_cell_length_c       5.121790409088135
_cell_angle_alpha    95.53134251338119
_cell_angle_beta     90.03325869553134
_cell_angle_gamma    89.89111562385906

_space_group_name_H-M_alt    "P 1"
_space_group_IT_number       1

loop_
  _space_group_symop_operation_xyz
  'x, y, z'

loop_
  _atom_site_type_symbol
  _atom_site_label
  _atom_site_symmetry_multiplicity
  _atom_site_fract_x
  _atom_site_fract_y
  _atom_site_fract_z
  _atom_site_occupancy
  O   O1        1.0  0.08803313231897764  0.7252918250121037  0.04140446786142471  1.0000
  O   O2        1.0  0.09038556006620671  0.9448670610997201  0.8410136644525451  1.0000
  Ba  Ba1       1.0  0.589003603235977  0.37838070153478287  0.8258643484817794  1.0000
  Ti  Ti1       1.0  0.08982870254336586  0.8708582001117946  0.42140957285650094  1.0000
  O   O3        1.0  0.0889438345324388  0.2781655872443373  0.4379820362247088  1.0000
  O   O4        1.0  0.5890748039628122  0.8009960091475546  0.45523330913836113  1.0000
