data_image226
_chemical_formula_structural       Ti2Ba2O6
_chemical_formula_sum              "Ti2 Ba2 O6"
_cell_length_a       5.120520401035635
_cell_length_b       5.8796352898315565
_cell_length_c       5.878222942352295
_cell_angle_alpha    120.25698269227773
_cell_angle_beta     90.01915435606477
_cell_angle_gamma    90.04943258390877

_space_group_name_H-M_alt    "P 1"
_space_group_IT_number       1

loop_
  _space_group_symop_operation_xyz
  'x, y, z'

loop_
  _atom_site_type_symbol
  _atom_site_label
  _atom_site_symmetry_multiplicity
  _atom_site_fract_x
  _atom_site_fract_y
  _atom_site_fract_z
  _atom_site_occupancy
  Ti  Ti1       1.0  0.45421922537125464  0.41962738901774616  0.6477606830834541  1.0000
  Ti  Ti2       1.0  0.9542154645442193  0.4187536242267831  0.6490057459899047  1.0000
  Ba  Ba1       1.0  0.7386130936049748  0.08586037275685539  0.9814158326847829  1.0000
  Ba  Ba2       1.0  0.2386096024967154  0.752251709215121  0.3150715063502619  1.0000
  O   O1        1.0  0.6647884635973097  0.5695349350498624  0.4979283850607927  1.0000
  O   O2        1.0  0.664328480645172  0.11826189199128896  0.4971857268662809  1.0000
  O   O3        1.0  0.16507965140839273  0.7201847080054046  0.799576301780667  1.0000
  O   O4        1.0  0.6649395787833493  0.5703055088142052  0.9492940225563783  1.0000
  O   O5        1.0  0.16456246676782338  0.2688912244951222  0.7987725438201623  1.0000
  O   O6        1.0  0.16439692140622572  0.2680863300071075  0.3474154050820722  1.0000
