data_image1001
_chemical_formula_structural       BaOTiO
_chemical_formula_sum              "Ba1 O2 Ti1"
_cell_length_a       3.2926407412222414
_cell_length_b       3.2946206034343914
_cell_length_c       7.101120471954346
_cell_angle_alpha    76.34768408494295
_cell_angle_beta     76.35166622544772
_cell_angle_gamma    59.74625599267355

_space_group_name_H-M_alt    "P 1"
_space_group_IT_number       1

loop_
  _space_group_symop_operation_xyz
  'x, y, z'

loop_
  _atom_site_type_symbol
  _atom_site_label
  _atom_site_symmetry_multiplicity
  _atom_site_fract_x
  _atom_site_fract_y
  _atom_site_fract_z
  _atom_site_occupancy
  Ba  Ba1       1.0  0.08449041168163766  0.43493136797534837  0.7260135610762697  1.0000
  O   O1        1.0  0.20748073583538193  0.5584880386394074  0.35407894579964755  1.0000
  Ti  Ti1       1.0  0.584168697272987  0.9352193844276093  0.22598146195334548  1.0000
  O   O2        1.0  0.9608469307723233  0.3118775445408785  0.09789203183084678  1.0000
