data_image95
_chemical_formula_structural       BaTiO4
_chemical_formula_sum              "Ba1 Ti1 O4"
_cell_length_a       3.9196560651632724
_cell_length_b       3.9244180356804126
_cell_length_c       5.464192867279053
_cell_angle_alpha    90.03608639144488
_cell_angle_beta     90.02108046912646
_cell_angle_gamma    89.97697110705741

_space_group_name_H-M_alt    "P 1"
_space_group_IT_number       1

loop_
  _space_group_symop_operation_xyz
  'x, y, z'

loop_
  _atom_site_type_symbol
  _atom_site_label
  _atom_site_symmetry_multiplicity
  _atom_site_fract_x
  _atom_site_fract_y
  _atom_site_fract_z
  _atom_site_occupancy
  Ba  Ba1       1.0  0.3940978410003777  0.3728113837478984  0.19432012214932115  1.0000
  Ti  Ti1       1.0  0.9182853283102717  0.8500233232023459  0.7831394702041479  1.0000
  O   O1        1.0  0.8822726480076429  0.319146183691031  0.8323173086308906  1.0000
  O   O2        1.0  0.3778276180236483  0.8300665123837765  0.8277082107723386  1.0000
  O   O3        1.0  0.8898296541837837  0.6961817034063534  0.4412043231357024  1.0000
  O   O4        1.0  0.8909783215296968  0.9121503555415029  0.22019934282528592  1.0000
