data_image183
_chemical_formula_structural       TiBaOBaOTiO4
_chemical_formula_sum              "Ti2 Ba2 O6"
_cell_length_a       4.204056264624783
_cell_length_b       5.66586808971484
_cell_length_c       5.666130542755127
_cell_angle_alpha    90.04457632174936
_cell_angle_beta     90.00160759902444
_cell_angle_gamma    90.0073039770824

_space_group_name_H-M_alt    "P 1"
_space_group_IT_number       1

loop_
  _space_group_symop_operation_xyz
  'x, y, z'

loop_
  _atom_site_type_symbol
  _atom_site_label
  _atom_site_symmetry_multiplicity
  _atom_site_fract_x
  _atom_site_fract_y
  _atom_site_fract_z
  _atom_site_occupancy
  Ti  Ti1       1.0  0.768136575107887  0.6590139388046746  0.7793609379632553  1.0000
  Ba  Ba1       1.0  0.28729520770190864  0.6581284453979572  0.2795196639969897  1.0000
  O   O1        1.0  0.33450846492273184  0.6578090322882153  0.779627931801757  1.0000
  Ba  Ba2       1.0  0.28732460841430857  0.15814902790099694  0.7795639078564444  1.0000
  O   O2        1.0  0.8136762875596262  0.9073174672512291  0.5299356888843166  1.0000
  Ti  Ti2       1.0  0.7681883092783165  0.1589773822156012  0.27939990838559897  1.0000
  O   O3        1.0  0.8138700399764274  0.40736049298139154  0.5295217740437946  1.0000
  O   O4        1.0  0.8137228368456718  0.4072713621646411  0.02988351373898154  1.0000
  O   O5        1.0  0.33456234413598085  0.15772385821339663  0.2796324773635401  1.0000
  O   O6        1.0  0.8139628200707955  0.9073592708896033  0.029514591138157166  1.0000
