data_image372
_chemical_formula_structural       Ba2OTiBaTiO2BaO5
_chemical_formula_sum              "Ba4 O8 Ti2"
_cell_length_a       4.040648800459912
_cell_length_b       4.041553114622778
_cell_length_c       14.639763832092287
_cell_angle_alpha    89.98763303219289
_cell_angle_beta     89.9764929925513
_cell_angle_gamma    90.03715190089392

_space_group_name_H-M_alt    "P 1"
_space_group_IT_number       1

loop_
  _space_group_symop_operation_xyz
  'x, y, z'

loop_
  _atom_site_type_symbol
  _atom_site_label
  _atom_site_symmetry_multiplicity
  _atom_site_fract_x
  _atom_site_fract_y
  _atom_site_fract_z
  _atom_site_occupancy
  Ba  Ba1       1.0  0.9888824335371569  0.9037656061464276  0.4878537707949221  1.0000
  Ba  Ba2       1.0  0.48823152163098577  0.40404178650379347  0.9928286028410885  1.0000
  O   O1        1.0  0.4886930546458029  0.9039238068222463  0.35969170668708556  1.0000
  Ti  Ti1       1.0  0.9889227084357131  0.9037088383881043  0.8108272217961  1.0000
  Ba  Ba3       1.0  0.4889223018683716  0.4039126666769393  0.6949993358516176  1.0000
  Ti  Ti2       1.0  0.4893178779788147  0.40379353959609365  0.37195110290241185  1.0000
  O   O2        1.0  0.48866820745716033  0.40380210258967897  0.4989674475726165  1.0000
  O   O3        1.0  0.9883830189049304  0.4038620677612723  0.35971557933909637  1.0000
  Ba  Ba4       1.0  0.9884987923090575  0.9041275384608929  0.18939203243454159  1.0000
  O   O4        1.0  0.48857147681350066  0.9039973837871389  0.09107781187764599  1.0000
  O   O5        1.0  0.9888345282692732  0.9040067173754355  0.6838474472674937  1.0000
  O   O6        1.0  0.9881206271655625  0.4041880508419233  0.09115528140867167  1.0000
  O   O7        1.0  0.48847027502906437  0.9040082213351666  0.8231318908173454  1.0000
  O   O8        1.0  0.9886405319151  0.4041441105158969  0.8230532206042027  1.0000
