data_image469
_chemical_formula_structural       O2BaOTiBaO
_chemical_formula_sum              "O4 Ba2 Ti1"
_cell_length_a       4.029881510019994
_cell_length_b       4.0323248044189475
_cell_length_c       7.348956584930419
_cell_angle_alpha    105.92777002943212
_cell_angle_beta     105.99092269290628
_cell_angle_gamma    90.0132397403912

_space_group_name_H-M_alt    "P 1"
_space_group_IT_number       1

loop_
  _space_group_symop_operation_xyz
  'x, y, z'

loop_
  _atom_site_type_symbol
  _atom_site_label
  _atom_site_symmetry_multiplicity
  _atom_site_fract_x
  _atom_site_fract_y
  _atom_site_fract_z
  _atom_site_occupancy
  O   O1        1.0  0.5076780008431208  0.07803485851443004  0.1462374548346974  1.0000
  O   O2        1.0  0.35988613210816517  0.4306553538334827  0.8515892528141945  1.0000
  Ba  Ba1       1.0  0.004162870753469775  0.574191964321122  0.13910285792952023  1.0000
  O   O3        1.0  0.21228818757846385  0.78287605256607  0.5569640444410345  1.0000
  Ti  Ti1       1.0  0.36011517944387683  0.9302221192806982  0.851656325220816  1.0000
  Ba  Ba2       1.0  0.7158683735578052  0.2864468632068719  0.5641385110962814  1.0000
  O   O4        1.0  0.8598837254639675  0.9306429680624442  0.851601136404948  1.0000
