data_image262
_chemical_formula_structural       Ba2OBaOBaO3TiOTi2O3
_chemical_formula_sum              "Ba4 O9 Ti3"
_cell_length_a       5.729584466598922
_cell_length_b       5.736252972904473
_cell_length_c       9.199112892150879
_cell_angle_alpha    104.0059264441487
_cell_angle_beta     103.93036364170695
_cell_angle_gamma    91.61843681137128

_space_group_name_H-M_alt    "P 1"
_space_group_IT_number       1

loop_
  _space_group_symop_operation_xyz
  'x, y, z'

loop_
  _atom_site_type_symbol
  _atom_site_label
  _atom_site_symmetry_multiplicity
  _atom_site_fract_x
  _atom_site_fract_y
  _atom_site_fract_z
  _atom_site_occupancy
  Ba  Ba1       1.0  0.6219659652339564  0.652950650318034  0.22596748372394274  1.0000
  Ba  Ba2       1.0  0.32359217720087563  0.33429158517846447  0.7025875387122033  1.0000
  O   O1        1.0  0.3111633625105617  0.8340521113370328  0.6845005924781378  1.0000
  Ba  Ba3       1.0  0.8115060259989065  0.8464374392750373  0.7028792209848406  1.0000
  O   O2        1.0  0.47794204632981935  0.0005774619685219307  0.46552416480486536  1.0000
  Ba  Ba4       1.0  0.13032953677250025  0.14439187939333653  0.22562158211363184  1.0000
  O   O3        1.0  0.9669748985854691  0.48968185502883965  0.46616973138174495  1.0000
  O   O4        1.0  0.6253918353321879  0.14765580472708117  0.21985949433974994  1.0000
  O   O5        1.0  0.07493859230211163  0.2230415679884207  0.9154537860198961  1.0000
  Ti  Ti1       1.0  0.9981473991016778  0.5206561047882153  0.9916580888113325  1.0000
  O   O6        1.0  0.47135882737637563  0.48796210207479634  0.4595485168855059  1.0000
  Ti  Ti2       1.0  0.22446476494374884  0.7472294411625555  0.47739144510850884  1.0000
  Ti  Ti3       1.0  0.7081152091547274  0.23077091093017926  0.42744378205880085  1.0000
  O   O7        1.0  0.700672298580756  0.5977888663753217  0.9152110119152891  1.0000
  O   O8        1.0  0.11764451217108379  0.6401590245055847  0.20479934336297595  1.0000
  O   O9        1.0  0.9654041793099064  0.9940875162182842  0.459645088528947  1.0000
