data_image50
_chemical_formula_structural       BaTiBaO4
_chemical_formula_sum              "Ba2 Ti1 O4"
_cell_length_a       4.043530572493727
_cell_length_b       4.043812791972563
_cell_length_c       7.304977893829346
_cell_angle_alpha    106.0521817844273
_cell_angle_beta     105.99842745517441
_cell_angle_gamma    90.03189293865141

_space_group_name_H-M_alt    "P 1"
_space_group_IT_number       1

loop_
  _space_group_symop_operation_xyz
  'x, y, z'

loop_
  _atom_site_type_symbol
  _atom_site_label
  _atom_site_symmetry_multiplicity
  _atom_site_fract_x
  _atom_site_fract_y
  _atom_site_fract_z
  _atom_site_occupancy
  Ba  Ba1       1.0  0.854871475192191  0.6077159324826477  0.9732025773292516  1.0000
  Ti  Ti1       1.0  0.49838048458075096  0.25151069956747946  0.260548538740463  1.0000
  Ba  Ba2       1.0  0.14219208522026586  0.8953321200140051  0.5481764739818155  1.0000
  O   O1        1.0  0.6462294559494701  0.3993959025510425  0.5560864993321876  1.0000
  O   O2        1.0  0.9985931575748279  0.2516292253135543  0.2605860331087578  1.0000
  O   O3        1.0  0.3508323217191096  0.10361152494838616  0.9650237745726514  1.0000
  O   O4        1.0  0.498574914540154  0.7516065270355086  0.26064977548091256  1.0000
