data_image248
_chemical_formula_structural       TiBa2TiOBaOBaO5
_chemical_formula_sum              "Ti2 Ba4 O7"
_cell_length_a       6.83974034987776
_cell_length_b       6.428831376712786
_cell_length_c       7.421534538269042
_cell_angle_alpha    63.357587555253595
_cell_angle_beta     66.59788244631595
_cell_angle_gamma    61.592311914308446

_space_group_name_H-M_alt    "P 1"
_space_group_IT_number       1

loop_
  _space_group_symop_operation_xyz
  'x, y, z'

loop_
  _atom_site_type_symbol
  _atom_site_label
  _atom_site_symmetry_multiplicity
  _atom_site_fract_x
  _atom_site_fract_y
  _atom_site_fract_z
  _atom_site_occupancy
  Ti  Ti1       1.0  0.5908014110939551  0.1602715974553305  0.26990580530365404  1.0000
  Ba  Ba1       1.0  0.23448117176272748  0.8603084969443512  0.24167248324232526  1.0000
  Ba  Ba2       1.0  0.8805209951583806  0.534008310609393  0.16961627791510675  1.0000
  Ti  Ti2       1.0  0.8035928765281404  0.8617146182166215  0.6636608756374177  1.0000
  O   O1        1.0  0.9000609775529312  0.13040284202815963  0.5408747335335953  1.0000
  Ba  Ba3       1.0  0.5120145885271554  0.42158418710574325  0.7635890107988642  1.0000
  O   O2        1.0  0.7038340939340249  0.8243380895652249  0.4688334979317012  1.0000
  Ba  Ba4       1.0  0.15681832571465737  0.17713783949187192  0.6912205452543024  1.0000
  O   O3        1.0  0.33801054182354906  0.24165496848097565  0.1806204822596899  1.0000
  O   O4        1.0  0.4918015116185596  0.4001547178430056  0.3930711471784191  1.0000
  O   O5        1.0  0.5504425961758367  0.9198688073481586  0.8793239268217582  1.0000
  O   O6        1.0  0.05777184290322083  0.5985545771701434  0.7532408358574794  1.0000
  O   O7        1.0  0.8437525507142267  0.18432899352556828  0.0537975506699439  1.0000
