data_image294
_chemical_formula_structural       BaTiO4TiO
_chemical_formula_sum              "Ba1 Ti2 O5"
_cell_length_a       3.96613680550333
_cell_length_b       4.331464602220639
_cell_length_c       6.384005069732666
_cell_angle_alpha    92.73691376807429
_cell_angle_beta     108.14425506169923
_cell_angle_gamma    90.0793625665215

_space_group_name_H-M_alt    "P 1"
_space_group_IT_number       1

loop_
  _space_group_symop_operation_xyz
  'x, y, z'

loop_
  _atom_site_type_symbol
  _atom_site_label
  _atom_site_symmetry_multiplicity
  _atom_site_fract_x
  _atom_site_fract_y
  _atom_site_fract_z
  _atom_site_occupancy
  Ba  Ba1       1.0  0.9250528458476026  0.5250990125459148  0.6886913217751123  1.0000
  Ti  Ti1       1.0  0.2637704311960318  0.948921467632239  0.36609335309771  1.0000
  O   O1        1.0  0.42482351974146376  0.024728979090269245  0.6884138038302904  1.0000
  O   O2        1.0  0.2730463871336105  0.551802802590102  0.3846085581632547  1.0000
  O   O3        1.0  0.0994509553315801  0.02067956179526098  0.037949481277705574  1.0000
  O   O4        1.0  0.5768612274579948  0.4974250513187859  0.9924620684917861  1.0000
  Ti  Ti2       1.0  0.585966017061882  0.10027291237877088  0.010782634763078447  1.0000
  O   O5        1.0  0.7500266022474142  0.028367881624333225  0.33876790774819754  1.0000
