data_image358
_chemical_formula_structural       BaOTiO
_chemical_formula_sum              "Ba1 O2 Ti1"
_cell_length_a       3.301789355529171
_cell_length_b       3.3024119942534176
_cell_length_c       6.285724639892578
_cell_angle_alpha    74.82989224840809
_cell_angle_beta     74.82405204094732
_cell_angle_gamma    60.13730830476651

_space_group_name_H-M_alt    "P 1"
_space_group_IT_number       1

loop_
  _space_group_symop_operation_xyz
  'x, y, z'

loop_
  _atom_site_type_symbol
  _atom_site_label
  _atom_site_symmetry_multiplicity
  _atom_site_fract_x
  _atom_site_fract_y
  _atom_site_fract_z
  _atom_site_occupancy
  Ba  Ba1       1.0  0.4434972460703456  0.7700040289852299  0.7620688679263145  1.0000
  O   O1        1.0  0.665380103661304  0.9919428319643784  0.09644805189992584  1.0000
  Ti  Ti1       1.0  0.9434817109083506  0.27007227392997163  0.2622170145496066  1.0000
  O   O2        1.0  0.2216358241303762  0.5482180081081717  0.4277645679831698  1.0000
