data_image209
_chemical_formula_structural       O2BaTi
_chemical_formula_sum              "O2 Ba1 Ti1"
_cell_length_a       3.268356858493254
_cell_length_b       3.268195438028205
_cell_length_c       6.527356147766113
_cell_angle_alpha    75.48039346057753
_cell_angle_beta     75.42791581096161
_cell_angle_gamma    59.93818347151726

_space_group_name_H-M_alt    "P 1"
_space_group_IT_number       1

loop_
  _space_group_symop_operation_xyz
  'x, y, z'

loop_
  _atom_site_type_symbol
  _atom_site_label
  _atom_site_symmetry_multiplicity
  _atom_site_fract_x
  _atom_site_fract_y
  _atom_site_fract_z
  _atom_site_occupancy
  O   O1        1.0  0.341583210695311  0.8901405641676042  0.8719385764654447  1.0000
  O   O2        1.0  0.5651613310274589  0.11412797058434221  0.19991062472758298  1.0000
  Ba  Ba1       1.0  0.12210919023083192  0.6703898167341446  0.5282783572575563  1.0000
  Ti  Ti1       1.0  0.9527581756358592  0.5016179965730556  0.03798529895584509  1.0000
