data_image225
_chemical_formula_structural       BaTi2O4Ba
_chemical_formula_sum              "Ba2 Ti2 O4"
_cell_length_a       3.8209303670015307
_cell_length_b       3.817515632253759
_cell_length_c       11.10961627960205
_cell_angle_alpha    90.07865212511663
_cell_angle_beta     99.53644310521675
_cell_angle_gamma    90.02246016621723

_space_group_name_H-M_alt    "P 1"
_space_group_IT_number       1

loop_
  _space_group_symop_operation_xyz
  'x, y, z'

loop_
  _atom_site_type_symbol
  _atom_site_label
  _atom_site_symmetry_multiplicity
  _atom_site_fract_x
  _atom_site_fract_y
  _atom_site_fract_z
  _atom_site_occupancy
  Ba  Ba1       1.0  0.5950508348666965  0.4265790389851235  0.825287342091817  1.0000
  Ti  Ti1       1.0  0.9815293695804042  0.9255514401272809  0.5900239145368118  1.0000
  Ti  Ti2       1.0  0.4195286431799643  0.4246878640410458  0.46432561880562057  1.0000
  O   O1        1.0  0.3361752789445002  0.4239954954184749  0.2925128030700421  1.0000
  O   O2        1.0  0.06476251338563012  0.9265037002572816  0.7618462010651595  1.0000
  O   O3        1.0  0.45135562070848834  0.9249427020784405  0.5273714465814328  1.0000
  O   O4        1.0  0.9496471982599403  0.42530196218668703  0.5268709619388707  1.0000
  Ba  Ba2       1.0  0.8057311901283085  0.923914534398476  0.22874786057296814  1.0000
