data_image80
_chemical_formula_structural       TiBa2TiOBaO2BaO5
_chemical_formula_sum              "Ti2 Ba4 O8"
_cell_length_a       4.070366976657148
_cell_length_b       4.076172698794557
_cell_length_c       14.55421543121338
_cell_angle_alpha    90.06025842815448
_cell_angle_beta     90.04996533738962
_cell_angle_gamma    90.10462733097125

_space_group_name_H-M_alt    "P 1"
_space_group_IT_number       1

loop_
  _space_group_symop_operation_xyz
  'x, y, z'

loop_
  _atom_site_type_symbol
  _atom_site_label
  _atom_site_symmetry_multiplicity
  _atom_site_fract_x
  _atom_site_fract_y
  _atom_site_fract_z
  _atom_site_occupancy
  Ti  Ti1       1.0  0.5440339055241734  0.6378808451488105  0.9354989562616483  1.0000
  Ba  Ba1       1.0  0.5280422693377462  0.6526289180076086  0.5692781944328573  1.0000
  Ba  Ba2       1.0  0.03416325800803103  0.14704041413926477  0.3322150741795809  1.0000
  Ti  Ti2       1.0  0.5423038403095777  0.6390809494894423  0.20778642109264153  1.0000
  O   O1        1.0  0.5198999476014022  0.6638115214369037  0.061506184127888955  1.0000
  Ba  Ba3       1.0  0.03135902634118248  0.15098356819098388  0.059361468164566056  1.0000
  O   O2        1.0  0.016602306173005343  0.6610953549584434  0.2027984461705143  1.0000
  O   O3        1.0  0.5275493592069858  0.1530053450430857  0.6607580050174789  1.0000
  Ba  Ba4       1.0  0.028391584762556727  0.15333099966725533  0.758225703827374  1.0000
  O   O4        1.0  0.5230888477725876  0.6620814776927892  0.3358762215171537  1.0000
  O   O5        1.0  0.9975103693315104  0.6717704047442851  0.9216205736171839  1.0000
  O   O6        1.0  0.5110115372673193  0.18565985576468494  0.9218067495447517  1.0000
  O   O7        1.0  0.522878043627492  0.1679595044887001  0.20291082170917726  1.0000
  O   O8        1.0  0.028207378999545656  0.6535595531499222  0.6610399443352202  1.0000
