data_image423
_chemical_formula_structural       O2BaOTiO2TiBaOBaO
_chemical_formula_sum              "O7 Ba3 Ti2"
_cell_length_a       3.9899834453560303
_cell_length_b       3.989925315740797
_cell_length_c       13.126566886901855
_cell_angle_alpha    90.25727525626624
_cell_angle_beta     90.31099468256103
_cell_angle_gamma    89.95109152122136

_space_group_name_H-M_alt    "P 1"
_space_group_IT_number       1

loop_
  _space_group_symop_operation_xyz
  'x, y, z'

loop_
  _atom_site_type_symbol
  _atom_site_label
  _atom_site_symmetry_multiplicity
  _atom_site_fract_x
  _atom_site_fract_y
  _atom_site_fract_z
  _atom_site_occupancy
  O   O1        1.0  0.4319432488958285  0.7266974155064555  0.5050964777675536  1.0000
  O   O2        1.0  0.9293379970035685  0.7244614988237258  0.3570295233691687  1.0000
  Ba  Ba1       1.0  0.926314728784345  0.2219032930663722  0.19863192855397027  1.0000
  O   O3        1.0  0.4264544937367011  0.7220959590574163  0.19871919532523402  1.0000
  Ti  Ti1       1.0  0.4289334461611315  0.7235049271839737  0.3573648130258237  1.0000
  O   O4        1.0  0.4210430935339314  0.7175685066388325  0.8922098583043715  1.0000
  O   O5        1.0  0.9237233684889563  0.7197789979280254  0.04034731181348672  1.0000
  Ti  Ti2       1.0  0.42344017607756795  0.719949448949514  0.03998876283783042  1.0000
  Ba  Ba2       1.0  0.9208823866739464  0.2177168572852268  0.8918106097384891  1.0000
  O   O6        1.0  0.4236804266030055  0.2197212174538934  0.040340049143220674  1.0000
  Ba  Ba3       1.0  0.931835072911923  0.22618481946740415  0.5055732428201616  1.0000
  O   O7        1.0  0.429244119048524  0.2247038017192256  0.3570015176419528  1.0000
