data_image463
_chemical_formula_structural       TiBa2OTiO5
_chemical_formula_sum              "Ti2 Ba2 O6"
_cell_length_a       4.01765990284763
_cell_length_b       6.240131060286557
_cell_length_c       7.982207775115967
_cell_angle_alpha    112.70270891850244
_cell_angle_beta     90.05922024421375
_cell_angle_gamma    90.01067808782201

_space_group_name_H-M_alt    "P 1"
_space_group_IT_number       1

loop_
  _space_group_symop_operation_xyz
  'x, y, z'

loop_
  _atom_site_type_symbol
  _atom_site_label
  _atom_site_symmetry_multiplicity
  _atom_site_fract_x
  _atom_site_fract_y
  _atom_site_fract_z
  _atom_site_occupancy
  Ti  Ti1       1.0  0.8219326507625234  0.16249905851184399  0.5414643883045144  1.0000
  Ba  Ba1       1.0  0.3218654776364333  0.5652548416346936  0.3433962405028768  1.0000
  Ba  Ba2       1.0  0.8224437931411273  0.925590210431626  0.06386292912889684  1.0000
  O   O1        1.0  0.32193520186215735  0.18721885628831486  0.5963882944000474  1.0000
  Ti  Ti2       1.0  0.322381441204959  0.32777677715139536  0.8659694358652141  1.0000
  O   O2        1.0  0.8222825021136144  0.3020902967974019  0.8111226174167024  1.0000
  O   O3        1.0  0.32256734007814764  0.17580782485906565  0.016509105479692376  1.0000
  O   O4        1.0  0.8218594471171078  0.31582145347858354  0.3919659628695284  1.0000
  O   O5        1.0  0.8217743142352052  0.8608907389485694  0.39137259425455756  1.0000
  O   O6        1.0  0.32240997684703726  0.6297421972553706  0.014986607375817794  1.0000
