data_image79
_chemical_formula_structural       TiBaOTi2O3BaOBaO5
_chemical_formula_sum              "Ti3 Ba3 O10"
_cell_length_a       3.895917783865933
_cell_length_b       3.894712137479615
_cell_length_c       15.37661075592041
_cell_angle_alpha    89.98326170992858
_cell_angle_beta     89.98520831367892
_cell_angle_gamma    89.97118593516808

_space_group_name_H-M_alt    "P 1"
_space_group_IT_number       1

loop_
  _space_group_symop_operation_xyz
  'x, y, z'

loop_
  _atom_site_type_symbol
  _atom_site_label
  _atom_site_symmetry_multiplicity
  _atom_site_fract_x
  _atom_site_fract_y
  _atom_site_fract_z
  _atom_site_occupancy
  Ti  Ti1       1.0  0.30515229023259693  0.5627621061464216  0.14329113340243968  1.0000
  Ba  Ba1       1.0  0.8052757814541318  0.06274592962601336  0.9940283410663395  1.0000
  O   O1        1.0  0.305391993678097  0.06287654496719121  0.8623487647501501  1.0000
  Ti  Ti2       1.0  0.3048034557486241  0.562595966091126  0.446006226950917  1.0000
  Ti  Ti3       1.0  0.3054782647703  0.5629279447169016  0.840813678456029  1.0000
  O   O2        1.0  0.8051396253492837  0.5627145143245769  0.13536690926593864  1.0000
  O   O3        1.0  0.8048817461489061  0.5625552481552888  0.4193035726052862  1.0000
  O   O4        1.0  0.30511081410274793  0.06274637822910357  0.1352551247959243  1.0000
  Ba  Ba2       1.0  0.8050239303899738  0.06271201075755815  0.29137097440751114  1.0000
  O   O5        1.0  0.30449980597419485  0.5625877797469857  0.5606581598054255  1.0000
  Ba  Ba3       1.0  0.8052023750357526  0.061417786059806384  0.648648406319808  1.0000
  O   O6        1.0  0.30503660473365624  0.5627083840717033  0.26415557060814626  1.0000
  O   O7        1.0  0.3057761273892211  0.5634317313991549  0.7253583606034248  1.0000
  O   O8        1.0  0.3052703777175964  0.5627752132042425  0.006970899275298592  1.0000
  O   O9        1.0  0.3049141806095949  0.06257511296227383  0.4193166530787728  1.0000
  O   O10       1.0  0.8054356293007932  0.5627967517562514  0.8624455363516262  1.0000
