data_image223
_chemical_formula_structural       TiBa2TiOTiO6TiO
_chemical_formula_sum              "Ti4 Ba2 O8"
_cell_length_a       4.094821097149448
_cell_length_b       5.647754317569686
_cell_length_c       8.53378677368164
_cell_angle_alpha    90.18726580809978
_cell_angle_beta     92.45895947677883
_cell_angle_gamma    90.02050673221167

_space_group_name_H-M_alt    "P 1"
_space_group_IT_number       1

loop_
  _space_group_symop_operation_xyz
  'x, y, z'

loop_
  _atom_site_type_symbol
  _atom_site_label
  _atom_site_symmetry_multiplicity
  _atom_site_fract_x
  _atom_site_fract_y
  _atom_site_fract_z
  _atom_site_occupancy
  Ti  Ti1       1.0  0.2027154011273649  0.6058811513666976  0.8561787557538922  1.0000
  Ba  Ba1       1.0  0.6769977156647694  0.6062573713347198  0.5184620004309081  1.0000
  Ba  Ba2       1.0  0.6532124119692899  0.10531639287997763  0.1868363451891877  1.0000
  Ti  Ti2       1.0  0.14713989848902165  0.10561052516266725  0.8486858704196169  1.0000
  O   O1        1.0  0.1747363567960554  0.8555725133906866  0.35197013850262826  1.0000
  Ti  Ti3       1.0  0.16329029027803169  0.10624024808340297  0.509835058631184  1.0000
  O   O2        1.0  0.2010494206924294  0.8526516648133238  0.6922785809776945  1.0000
  O   O3        1.0  0.1484269914725089  0.8586842016925424  0.012519348649304757  1.0000
  O   O4        1.0  0.17433091370721335  0.3560271282388474  0.35199189874432163  1.0000
  O   O5        1.0  0.7005148093073903  0.10607945540721235  0.5112188659542343  1.0000
  O   O6        1.0  0.14920833509670745  0.3531037096726314  0.012403546074201964  1.0000
  O   O7        1.0  0.20122957611785652  0.35859040258481784  0.6924237116370108  1.0000
  Ti  Ti4       1.0  0.13241314208509228  0.6053031835529198  0.19465958175966014  1.0000
  O   O8        1.0  0.674822623045007  0.6054604311998779  0.1923007361411389  1.0000
