data_image0
_chemical_formula_structural       OBaTiO
_chemical_formula_sum              "O2 Ba1 Ti1"
_cell_length_a       3.3213982102756705
_cell_length_b       3.3205180765957705
_cell_length_c       6.3248419761657715
_cell_angle_alpha    74.79128163590809
_cell_angle_beta     74.77286712039361
_cell_angle_gamma    59.99240893414035

_space_group_name_H-M_alt    "P 1"
_space_group_IT_number       1

loop_
  _space_group_symop_operation_xyz
  'x, y, z'

loop_
  _atom_site_type_symbol
  _atom_site_label
  _atom_site_symmetry_multiplicity
  _atom_site_fract_x
  _atom_site_fract_y
  _atom_site_fract_z
  _atom_site_occupancy
  O   O1        1.0  0.9610847734085131  0.7288933281493448  0.9070462560586308  1.0000
  Ba  Ba1       1.0  0.18252924116895367  0.9505714018316286  0.24206072655303393  1.0000
  Ti  Ti1       1.0  0.6827987735643642  0.4503809940401167  0.742326309291837  1.0000
  O   O2        1.0  0.40444909970605325  0.1721235363706357  0.5771875011231604  1.0000
