data_image314
_chemical_formula_structural       BaTiO2Ba2OTiOBaOBa2O2BaO4
_chemical_formula_sum              "Ba7 Ti2 O11"
_cell_length_a       6.97608775632607
_cell_length_b       6.993935280009116
_cell_length_c       10.054414749145508
_cell_angle_alpha    73.99887653410632
_cell_angle_beta     77.6848228939614
_cell_angle_gamma    69.01099975463121

_space_group_name_H-M_alt    "P 1"
_space_group_IT_number       1

loop_
  _space_group_symop_operation_xyz
  'x, y, z'

loop_
  _atom_site_type_symbol
  _atom_site_label
  _atom_site_symmetry_multiplicity
  _atom_site_fract_x
  _atom_site_fract_y
  _atom_site_fract_z
  _atom_site_occupancy
  Ba  Ba1       1.0  0.5553226383465796  0.5615038951754675  0.7910902465638228  1.0000
  Ti  Ti1       1.0  0.5198571248306958  0.19480172343727295  0.13003232068680806  1.0000
  O   O1        1.0  0.5563401105553625  0.30211205458010937  0.26691688133782765  1.0000
  O   O2        1.0  0.015951364889915737  0.3700590845104943  0.5766867689811512  1.0000
  Ba  Ba2       1.0  0.16363797035571812  0.27469916073973705  0.8194376594977849  1.0000
  Ba  Ba3       1.0  0.9809499353364988  0.17313280458541414  0.23040660517418768  1.0000
  O   O3        1.0  0.6552749613907755  0.74314953158549  0.5285641889270909  1.0000
  Ti  Ti2       1.0  0.916996076969308  0.615165005032973  0.45291456021052473  1.0000
  O   O4        1.0  0.8569514117596396  0.639858249842808  0.8525554277904954  1.0000
  Ba  Ba4       1.0  0.37441314539292836  0.10272106220981173  0.5028514565971303  1.0000
  O   O5        1.0  0.21514042786523838  0.8995905969400888  0.7774254767328795  1.0000
  Ba  Ba5       1.0  0.006934455160074645  0.7310720121285723  0.02045420731610278  1.0000
  Ba  Ba6       1.0  0.8706051324943775  0.9765994890814982  0.6678375077430158  1.0000
  O   O6        1.0  0.40590519489682236  0.9920725829251767  0.22805548713906076  1.0000
  O   O7        1.0  0.32563596179943477  0.3748942520347776  0.014831726369945146  1.0000
  Ba  Ba7       1.0  0.464681388124598  0.6105810623661478  0.3841211155234873  1.0000
  O   O8        1.0  0.7880886023901156  0.12011393751187391  0.036992998102987035  1.0000
  O   O9        1.0  0.8981581082008471  0.5434004272517989  0.29388919440942196  1.0000
  O   O10       1.0  0.5015104294295427  0.2891055961801764  0.638918342822707  1.0000
  O   O11       1.0  0.051872741300055425  0.8133195434776701  0.42830763888755063  1.0000
