data_image570
_chemical_formula_structural       Ba3OBaTiO5Ti
_chemical_formula_sum              "Ba4 O6 Ti2"
_cell_length_a       5.356554968347119
_cell_length_b       5.50165321361409
_cell_length_c       10.465060234069824
_cell_angle_alpha    80.63325180724992
_cell_angle_beta     89.91994585340228
_cell_angle_gamma    61.046939838457725

_space_group_name_H-M_alt    "P 1"
_space_group_IT_number       1

loop_
  _space_group_symop_operation_xyz
  'x, y, z'

loop_
  _atom_site_type_symbol
  _atom_site_label
  _atom_site_symmetry_multiplicity
  _atom_site_fract_x
  _atom_site_fract_y
  _atom_site_fract_z
  _atom_site_occupancy
  Ba  Ba1       1.0  0.9462332264171329  0.46684825541379915  0.7172290820565439  1.0000
  Ba  Ba2       1.0  0.756759512546196  0.8450724907234234  0.264706312861369  1.0000
  Ba  Ba3       1.0  0.22866210277037785  0.9083133123184012  0.5320357343503131  1.0000
  O   O1        1.0  0.4591627076438732  0.9326773308258859  0.7693558759755431  1.0000
  Ba  Ba4       1.0  0.030633912272163142  0.29880098922948073  0.08118178778250895  1.0000
  Ti  Ti1       1.0  0.6833047390400309  0.9929329151310748  0.8965442315649828  1.0000
  O   O2        1.0  0.48934748609497386  0.3812759787518344  0.895752672155305  1.0000
  O   O3        1.0  0.7879649263822767  0.7684021782471477  0.5012224708386581  1.0000
  O   O4        1.0  0.9685329832953744  0.9323230597692203  0.7693563476762674  1.0000
  O   O5        1.0  0.5172851766602247  0.8283011020255394  0.030280771361720693  1.0000
  O   O6        1.0  0.01290512576635228  0.8278602911856773  0.030099297040461204  1.0000
  Ti  Ti2       1.0  0.2962811025944676  0.7666449747506119  0.9027074634227099  1.0000
