data_image449
_chemical_formula_structural       BaOBa3OTi2O4
_chemical_formula_sum              "Ba4 O6 Ti2"
_cell_length_a       3.8968975543979485
_cell_length_b       7.489398863249859
_cell_length_c       11.088037490844727
_cell_angle_alpha    115.85458387725056
_cell_angle_beta     89.99997518372147
_cell_angle_gamma    105.14296914643589

_space_group_name_H-M_alt    "P 1"
_space_group_IT_number       1

loop_
  _space_group_symop_operation_xyz
  'x, y, z'

loop_
  _atom_site_type_symbol
  _atom_site_label
  _atom_site_symmetry_multiplicity
  _atom_site_fract_x
  _atom_site_fract_y
  _atom_site_fract_z
  _atom_site_occupancy
  Ba  Ba1       1.0  0.5959716393349846  0.690676377468516  0.3886499982573897  1.0000
  O   O1        1.0  0.3749729183171481  0.2486461471970574  0.33651679127458484  1.0000
  Ba  Ba2       1.0  0.09418517453014892  0.6913847025105857  0.8881221568344984  1.0000
  Ba  Ba3       1.0  0.8033940675577336  0.10534340769604346  0.7218332056028938  1.0000
  Ba  Ba4       1.0  0.3893176503691248  0.2776209837287668  0.054738991310140754  1.0000
  O   O2        1.0  0.7444148496997237  0.9885846157590676  0.10525927783389655  1.0000
  Ti  Ti1       1.0  0.34663713542354263  0.1915606574269079  0.5006072747482203  1.0000
  Ti  Ti2       1.0  0.8454026769087859  0.18988514338094323  0.2755116345841932  1.0000
  O   O3        1.0  0.9658892344730141  0.43059791321947594  0.246356196253013  1.0000
  O   O4        1.0  0.8169853939426238  0.1326501778707416  0.43958039600258536  1.0000
  O   O5        1.0  0.22633776383413448  0.9513309279405885  0.5302916327268401  1.0000
  O   O6        1.0  0.4480690531146656  0.3932877415447481  0.6707127490926527  1.0000
