data_image882
_chemical_formula_structural       O2TiOBaTi2O
_chemical_formula_sum              "O4 Ti3 Ba1"
_cell_length_a       5.321335399178153
_cell_length_b       5.3063122565321565
_cell_length_c       5.636190414428711
_cell_angle_alpha    105.29953624638891
_cell_angle_beta     103.1785108105063
_cell_angle_gamma    115.29837197836721

_space_group_name_H-M_alt    "P 1"
_space_group_IT_number       1

loop_
  _space_group_symop_operation_xyz
  'x, y, z'

loop_
  _atom_site_type_symbol
  _atom_site_label
  _atom_site_symmetry_multiplicity
  _atom_site_fract_x
  _atom_site_fract_y
  _atom_site_fract_z
  _atom_site_occupancy
  O   O1        1.0  0.045606668378906104  0.28213207545636976  0.2594504684774048  1.0000
  O   O2        1.0  0.40347366849104616  0.22535122579758485  0.9240490913293623  1.0000
  Ti  Ti1       1.0  0.03793807656158992  0.9469789445202829  0.9506575611777613  1.0000
  O   O3        1.0  0.062217859584786164  0.5710829858839553  0.8126466790627628  1.0000
  Ba  Ba1       1.0  0.5484694079722543  0.7921037965932535  0.2910143302732971  1.0000
  Ti  Ti2       1.0  0.2589114453626932  0.3650390957179051  0.6365193503317147  1.0000
  Ti  Ti3       1.0  0.7915321742933985  0.28638513159577106  0.9242387538083844  1.0000
  O   O4        1.0  0.6006847731406789  0.7987019223637717  0.7927961643972951  1.0000
