data_image385
_chemical_formula_structural       OBaOTi2BaO2BaO3
_chemical_formula_sum              "O7 Ba3 Ti2"
_cell_length_a       3.9791226718053125
_cell_length_b       4.058446759048558
_cell_length_c       11.446921348571777
_cell_angle_alpha    100.18728446305329
_cell_angle_beta     89.94004027134822
_cell_angle_gamma    89.9607562392656

_space_group_name_H-M_alt    "P 1"
_space_group_IT_number       1

loop_
  _space_group_symop_operation_xyz
  'x, y, z'

loop_
  _atom_site_type_symbol
  _atom_site_label
  _atom_site_symmetry_multiplicity
  _atom_site_fract_x
  _atom_site_fract_y
  _atom_site_fract_z
  _atom_site_occupancy
  O   O1        1.0  0.5598044893911174  0.17205765799528003  0.03543334923797193  1.0000
  Ba  Ba1       1.0  0.05727527695709912  0.8531856281745089  0.39148230662346467  1.0000
  O   O2        1.0  0.5576946530613158  0.35437355231403905  0.3914887102568488  1.0000
  Ti  Ti1       1.0  0.5552248549747555  0.42806907795265275  0.5744811816043592  1.0000
  Ti  Ti2       1.0  0.5586257775994913  0.27832287704438285  0.20871897238308598  1.0000
  Ba  Ba2       1.0  0.05440987191660545  0.021801548125160154  0.7421307241696523  1.0000
  O   O3        1.0  0.05882690120360322  0.2573019948265393  0.20956757175162696  1.0000
  O   O4        1.0  0.05668519494766919  0.4514364054033062  0.573511335533981  1.0000
  Ba  Ba3       1.0  0.059969751556022216  0.6843036814101666  0.04117428954036116  1.0000
  O   O5        1.0  0.5555234176868575  0.5367031452268036  0.7477312510125999  1.0000
  O   O6        1.0  0.5563878147504944  0.9566461744330577  0.5742095234495415  1.0000
  O   O7        1.0  0.5587179372942619  0.7520566040131227  0.2089373989244693  1.0000
