data_image428
_chemical_formula_structural       TiBaOBaO2TiO2
_chemical_formula_sum              "Ti2 Ba2 O5"
_cell_length_a       4.0443837499114075
_cell_length_b       6.45339527691102
_cell_length_c       6.618880271911621
_cell_angle_alpha    112.76326643043821
_cell_angle_beta     89.9662681979483
_cell_angle_gamma    108.15633724005444

_space_group_name_H-M_alt    "P 1"
_space_group_IT_number       1

loop_
  _space_group_symop_operation_xyz
  'x, y, z'

loop_
  _atom_site_type_symbol
  _atom_site_label
  _atom_site_symmetry_multiplicity
  _atom_site_fract_x
  _atom_site_fract_y
  _atom_site_fract_z
  _atom_site_occupancy
  Ti  Ti1       1.0  0.5541881829277686  0.6973588112011495  0.24743526650421746  1.0000
  Ba  Ba1       1.0  0.12365821087628837  0.8365253999384894  0.8530755771157973  1.0000
  O   O1        1.0  0.3729293439940008  0.33603564457605645  0.15855819806716742  1.0000
  Ba  Ba2       1.0  0.2883908785456564  0.16707765279210018  0.5102188821615176  1.0000
  O   O2        1.0  0.6971669210773446  0.9842046650808276  0.15490207330828387  1.0000
  O   O3        1.0  0.9215411196977952  0.43441458533571015  0.5113695328367276  1.0000
  Ti  Ti2       1.0  0.8823907850519589  0.35533672152974705  0.2131303887815575  1.0000
  O   O4        1.0  0.6395110985761149  0.8693181530677009  0.5484983578967632  1.0000
  O   O5        1.0  0.04191260888433569  0.672711397094289  0.18563976114742298  1.0000
