data_image275
_chemical_formula_structural       Ba3O2Ti2O2BaO2
_chemical_formula_sum              "Ba4 O6 Ti2"
_cell_length_a       4.047177832617558
_cell_length_b       4.0444064212268325
_cell_length_c       14.481186866760252
_cell_angle_alpha    90.00341759898566
_cell_angle_beta     90.00815775056215
_cell_angle_gamma    90.05518360111995

_space_group_name_H-M_alt    "P 1"
_space_group_IT_number       1

loop_
  _space_group_symop_operation_xyz
  'x, y, z'

loop_
  _atom_site_type_symbol
  _atom_site_label
  _atom_site_symmetry_multiplicity
  _atom_site_fract_x
  _atom_site_fract_y
  _atom_site_fract_z
  _atom_site_occupancy
  Ba  Ba1       1.0  0.7292556650090214  0.9108942801673008  0.29360107391213647  1.0000
  Ba  Ba2       1.0  0.7293216057811279  0.910835184847826  0.5639351361734392  1.0000
  Ba  Ba3       1.0  0.729363684599243  0.9108031340758246  0.8436248531092272  1.0000
  O   O1        1.0  0.22933323417347792  0.41084750822169175  0.5665142595066178  1.0000
  O   O2        1.0  0.7292927965310982  0.41087834115947375  0.4228003425077705  1.0000
  Ti  Ti1       1.0  0.22929964522349067  0.41088339260833173  0.4185112349339038  1.0000
  Ti  Ti2       1.0  0.22935283177162336  0.4107989636736473  0.6980897017282996  1.0000
  O   O3        1.0  0.22923813407653754  0.41086406489733523  0.2843929568345832  1.0000
  O   O4        1.0  0.7293762849078795  0.4107951204622414  0.7139744276109204  1.0000
  Ba  Ba4       1.0  0.22931182063563502  0.4109725926639063  0.08145254413788876  1.0000
  O   O5        1.0  0.22935656002544702  0.9108071999456516  0.7140266967062481  1.0000
  O   O6        1.0  0.2293005899204068  0.9108659287661605  0.4228269921208918  1.0000
