data_image453
_chemical_formula_structural       O2BaOTiO3BaOTiBa
_chemical_formula_sum              "O7 Ba3 Ti2"
_cell_length_a       4.085075745313229
_cell_length_b       4.084805704655183
_cell_length_c       11.1015625
_cell_angle_alpha    100.51841990913638
_cell_angle_beta     100.52976366725461
_cell_angle_gamma    89.76270115964033

_space_group_name_H-M_alt    "P 1"
_space_group_IT_number       1

loop_
  _space_group_symop_operation_xyz
  'x, y, z'

loop_
  _atom_site_type_symbol
  _atom_site_label
  _atom_site_symmetry_multiplicity
  _atom_site_fract_x
  _atom_site_fract_y
  _atom_site_fract_z
  _atom_site_occupancy
  O   O1        1.0  0.17982950423457456  0.40416174289256235  0.7860222486789714  1.0000
  O   O2        1.0  0.991386760474991  0.21546625491167498  0.40859894789847656  1.0000
  Ba  Ba1       1.0  0.9274477794075081  0.6394677097583851  0.23167966998893402  1.0000
  O   O3        1.0  0.592354174099147  0.3043417647560206  0.5973740612403434  1.0000
  Ti  Ti1       1.0  0.7191398845229687  0.43116590379434283  0.7867594361522056  1.0000
  O   O4        1.0  0.6920549825833964  0.8918651450207007  0.7860111575959866  1.0000
  O   O5        1.0  0.5035608394644121  0.7033345181809679  0.408602825757802  1.0000
  O   O6        1.0  0.40957631298547287  0.1214575481997809  0.2256774340808513  1.0000
  Ba  Ba2       1.0  0.11068922860071637  0.8226984185307067  0.5973625553494069  1.0000
  O   O7        1.0  0.7794948903809722  0.49152980289713866  0.9689516283352368  1.0000
  Ti  Ti2       1.0  0.5301583056162555  0.24191975462619633  0.40800111150693646  1.0000
  Ba  Ba3       1.0  0.29227902062407374  0.004262611728132184  0.9630014489394434  1.0000
