data_image499
_chemical_formula_structural       BaTiO2
_chemical_formula_sum              "Ba1 Ti1 O2"
_cell_length_a       3.3041025481079105
_cell_length_b       3.3055188156376323
_cell_length_c       6.303637027740479
_cell_angle_alpha    74.82552053979546
_cell_angle_beta     74.82121141811686
_cell_angle_gamma    60.0304025467951

_space_group_name_H-M_alt    "P 1"
_space_group_IT_number       1

loop_
  _space_group_symop_operation_xyz
  'x, y, z'

loop_
  _atom_site_type_symbol
  _atom_site_label
  _atom_site_symmetry_multiplicity
  _atom_site_fract_x
  _atom_site_fract_y
  _atom_site_fract_z
  _atom_site_occupancy
  Ba  Ba1       1.0  0.15608821164104533  0.7478948713752477  0.09030570293542757  1.0000
  Ti  Ti1       1.0  0.6558654576433934  0.24770573803544874  0.5906421807644031  1.0000
  O   O1        1.0  0.37778290928113567  0.9696448052716388  0.424882119485479  1.0000
  O   O2        1.0  0.9341769598677228  0.5259641990179483  0.755889156088413  1.0000
