data_image220
_chemical_formula_structural       Ba4OBaO5TiOBaOTi
_chemical_formula_sum              "Ba6 O8 Ti2"
_cell_length_a       6.037254513453657
_cell_length_b       6.377108114110033
_cell_length_c       8.61552906036377
_cell_angle_alpha    89.8633509170429
_cell_angle_beta     89.90237860696341
_cell_angle_gamma    89.81585378618065

_space_group_name_H-M_alt    "P 1"
_space_group_IT_number       1

loop_
  _space_group_symop_operation_xyz
  'x, y, z'

loop_
  _atom_site_type_symbol
  _atom_site_label
  _atom_site_symmetry_multiplicity
  _atom_site_fract_x
  _atom_site_fract_y
  _atom_site_fract_z
  _atom_site_occupancy
  Ba  Ba1       1.0  0.5244778518723499  0.3015239703571522  0.4294389691943557  1.0000
  Ba  Ba2       1.0  0.5284622503888908  0.7902162608154224  0.6676941925423153  1.0000
  Ba  Ba3       1.0  0.027824297147282247  0.8485402327406811  0.40726736817990106  1.0000
  Ba  Ba4       1.0  0.0236876857813951  0.35986753144508665  0.1688329933370514  1.0000
  O   O1        1.0  0.5248081695303306  0.710895517969196  0.3590364145413532  1.0000
  Ba  Ba5       1.0  0.5249368881324327  0.30093945324814564  0.9083902846082067  1.0000
  O   O2        1.0  0.7841667751898495  0.12385481988252274  0.6698810130934751  1.0000
  O   O3        1.0  0.0256306936949232  0.43941938971056616  0.8595401060333783  1.0000
  O   O4        1.0  0.2839975017012373  0.027340626541544254  0.16678352593007328  1.0000
  O   O5        1.0  0.5260772127563942  0.7111444926159731  0.9769895821897767  1.0000
  O   O6        1.0  0.7679906052300967  0.026323263247920434  0.1669186354109163  1.0000
  Ti  Ti1       1.0  0.02574006936069507  0.30402081429943023  0.6687288995420163  1.0000
  O   O7        1.0  0.2679539505413143  0.12292100081353584  0.6698444683446595  1.0000
  Ba  Ba6       1.0  0.02730767605121153  0.8492403768593532  0.9280208498912732  1.0000
  O   O8        1.0  0.02690849521528375  0.43921012580045926  0.4774322071591596  1.0000
  Ti  Ti2       1.0  0.526279983332727  0.8463571327420293  0.16786078112623062  1.0000
