data_image654
_chemical_formula_structural       BaTiO2
_chemical_formula_sum              "Ba1 Ti1 O2"
_cell_length_a       3.3095829003191026
_cell_length_b       3.309893991130998
_cell_length_c       6.293221950531006
_cell_angle_alpha    74.79101384926625
_cell_angle_beta     74.77216255896134
_cell_angle_gamma    60.03969243591772

_space_group_name_H-M_alt    "P 1"
_space_group_IT_number       1

loop_
  _space_group_symop_operation_xyz
  'x, y, z'

loop_
  _atom_site_type_symbol
  _atom_site_label
  _atom_site_symmetry_multiplicity
  _atom_site_fract_x
  _atom_site_fract_y
  _atom_site_fract_z
  _atom_site_occupancy
  Ba  Ba1       1.0  0.6557745034116101  0.8701828412848929  0.3024385929144147  1.0000
  Ti  Ti1       1.0  0.1558742473376508  0.37008855194427887  0.8023805164905935  1.0000
  O   O1        1.0  0.877641931760031  0.0919253166321051  0.6370222806031198  1.0000
  O   O2        1.0  0.43401004560465023  0.6483221519532847  0.9678169975082338  1.0000
