data_image316
_chemical_formula_structural       BaOTiO4TiBa
_chemical_formula_sum              "Ba2 O5 Ti2"
_cell_length_a       5.691400798518157
_cell_length_b       5.693924408748014
_cell_length_c       5.813239574432373
_cell_angle_alpha    119.29112506959471
_cell_angle_beta     119.17109255557197
_cell_angle_gamma    89.91348483508122

_space_group_name_H-M_alt    "P 1"
_space_group_IT_number       1

loop_
  _space_group_symop_operation_xyz
  'x, y, z'

loop_
  _atom_site_type_symbol
  _atom_site_label
  _atom_site_symmetry_multiplicity
  _atom_site_fract_x
  _atom_site_fract_y
  _atom_site_fract_z
  _atom_site_occupancy
  Ba  Ba1       1.0  0.493619401764215  0.7182026226741188  0.9808598075024499  1.0000
  O   O1        1.0  0.9949056538568487  0.21885657041137963  0.4820006541398413  1.0000
  Ti  Ti1       1.0  0.7639889529428001  0.4889201681796226  0.5215726033150463  1.0000
  O   O2        1.0  0.9940616366027415  0.7189461083323861  0.9809473942522279  1.0000
  O   O3        1.0  0.49390495140918256  0.7194700219687683  0.48193924829865203  1.0000
  O   O4        1.0  0.4941811201240404  0.21883045036976873  0.4805500378902757  1.0000
  O   O5        1.0  0.9926687032223933  0.7174898711286253  0.47939028650163706  1.0000
  Ti  Ti2       1.0  0.22330258766851885  0.948280087635483  0.4404287156286896  1.0000
  Ba  Ba2       1.0  0.9935873578458593  0.21854917519657435  0.9806845666868251  1.0000
