data_image61
_chemical_formula_structural       BaTiBaTiOBaO2BaOTiO5TiO
_chemical_formula_sum              "Ba4 Ti4 O10"
_cell_length_a       4.037375550197057
_cell_length_b       4.041580321897525
_cell_length_c       16.681543350219727
_cell_angle_alpha    90.03118231754212
_cell_angle_beta     89.98724371133827
_cell_angle_gamma    90.00401182547229

_space_group_name_H-M_alt    "P 1"
_space_group_IT_number       1

loop_
  _space_group_symop_operation_xyz
  'x, y, z'

loop_
  _atom_site_type_symbol
  _atom_site_label
  _atom_site_symmetry_multiplicity
  _atom_site_fract_x
  _atom_site_fract_y
  _atom_site_fract_z
  _atom_site_occupancy
  Ba  Ba1       1.0  0.3011757126034975  0.34637920857012433  0.7966710938669147  1.0000
  Ti  Ti1       1.0  0.7966264526745045  0.8509747126369043  0.16455339717899492  1.0000
  Ba  Ba2       1.0  0.2969701173803642  0.35084088772991967  0.033278845341360434  1.0000
  Ti  Ti2       1.0  0.7967180868630708  0.8507431589236986  0.4281393553108158  1.0000
  O   O1        1.0  0.7959805199381219  0.3517673922847259  0.41733696333103404  1.0000
  Ba  Ba3       1.0  0.29640360659099535  0.35101828068487395  0.30352886311486066  1.0000
  O   O2        1.0  0.2971709487012409  0.8505354621909399  0.918417860771638  1.0000
  O   O3        1.0  0.7892616284471823  0.3653198574232154  0.6675587971386012  1.0000
  Ba  Ba4       1.0  0.2980360943624838  0.34925761186263027  0.546768219784416  1.0000
  O   O4        1.0  0.7944822403135869  0.8530263160741595  0.5399158333841793  1.0000
  Ti  Ti3       1.0  0.8124862754687916  0.8335697973543676  0.6765982744403282  1.0000
  O   O5        1.0  0.29561859034507587  0.8514320552797515  0.4172694327100607  1.0000
  O   O6        1.0  0.7961421779481639  0.8515988832587033  0.7893491835949283  1.0000
  O   O7        1.0  0.28305566543615635  0.8583750250456202  0.6674924832339457  1.0000
  O   O8        1.0  0.7964293843739859  0.8509874665159992  0.27644512716862213  1.0000
  O   O9        1.0  0.7969522059096966  0.8508671987527643  0.046810237358363066  1.0000
  Ti  Ti4       1.0  0.797714045060979  0.8501552128822821  0.9194026755338292  1.0000
  O   O10       1.0  0.7972681718494925  0.3506182009769256  0.9184234458263985  1.0000
