data_image70
_chemical_formula_structural       BaOBaO4TiBaOBaOTiO
_chemical_formula_sum              "Ba4 O8 Ti2"
_cell_length_a       6.176536000754184
_cell_length_b       6.179944802396528
_cell_length_c       8.17236042022705
_cell_angle_alpha    90.08600824627388
_cell_angle_beta     90.04404356579211
_cell_angle_gamma    120.04715742963728

_space_group_name_H-M_alt    "P 1"
_space_group_IT_number       1

loop_
  _space_group_symop_operation_xyz
  'x, y, z'

loop_
  _atom_site_type_symbol
  _atom_site_label
  _atom_site_symmetry_multiplicity
  _atom_site_fract_x
  _atom_site_fract_y
  _atom_site_fract_z
  _atom_site_occupancy
  Ba  Ba1       1.0  0.27984013965777266  0.6171434373456915  0.7952126773650258  1.0000
  O   O1        1.0  0.6128358763125303  0.2831663717937907  0.27427863228133154  1.0000
  Ba  Ba2       1.0  0.2797879135552904  0.6171224929023842  0.29518946023420556  1.0000
  O   O2        1.0  0.45345310976009917  0.9644943085081026  0.5746716539075233  1.0000
  O   O3        1.0  0.10593885875570043  0.26967109505498915  0.01563869926952805  1.0000
  O   O4        1.0  0.4540017039544808  0.4442811930882388  0.5743564320321806  1.0000
  O   O5        1.0  0.947217441745929  0.9515083005016486  0.31623960991067873  1.0000
  Ti  Ti1       1.0  0.6131189021105157  0.28380581327653454  0.49489312703028887  1.0000
  Ba  Ba3       1.0  0.6128154327228205  0.2837147541368651  0.9829388644163431  1.0000
  O   O6        1.0  0.9332674582457018  0.4443636230825269  0.5739508393439468  1.0000
  Ba  Ba4       1.0  0.9464879847941081  0.9503971622495808  0.607615585119679  1.0000
  O   O7        1.0  0.10649958811496336  0.7906605455965037  0.0162652261058835  1.0000
  Ti  Ti2       1.0  0.946649060524684  0.9504849860585836  0.09562958797855892  1.0000
  O   O8        1.0  0.6264979854365059  0.7894707245770994  0.016564546393765634  1.0000
