data_image108
_chemical_formula_structural       BaTiOTiO4BaO
_chemical_formula_sum              "Ba2 Ti2 O6"
_cell_length_a       5.7070931201814785
_cell_length_b       5.708374147150751
_cell_length_c       5.707679748535156
_cell_angle_alpha    60.059588832720564
_cell_angle_beta     60.057545695067816
_cell_angle_gamma    60.049036785223606

_space_group_name_H-M_alt    "P 1"
_space_group_IT_number       1

loop_
  _space_group_symop_operation_xyz
  'x, y, z'

loop_
  _atom_site_type_symbol
  _atom_site_label
  _atom_site_symmetry_multiplicity
  _atom_site_fract_x
  _atom_site_fract_y
  _atom_site_fract_z
  _atom_site_occupancy
  Ba  Ba1       1.0  0.8127729166507391  0.019639907422321547  0.8197100173393315  1.0000
  Ti  Ti1       1.0  0.062448985548450034  0.26967538863980883  0.0695088103783951  1.0000
  O   O1        1.0  0.3127162476594269  0.5197258312488295  0.8195512082030749  1.0000
  Ti  Ti2       1.0  0.5624907702308654  0.769558963147655  0.5694402106239879  1.0000
  O   O2        1.0  0.8126045602116003  0.5196711035158049  0.3197760613426032  1.0000
  O   O3        1.0  0.31252810411851284  0.01976817772109176  0.3195902477005593  1.0000
  O   O4        1.0  0.8125509022101253  0.01971248341965954  0.31964292796205496  1.0000
  O   O5        1.0  0.8125885547597732  0.519958735226688  0.819487595098042  1.0000
  Ba  Ba2       1.0  0.31258135191559333  0.5196249497104508  0.3195995247033526  1.0000
  O   O6        1.0  0.31269640529997905  0.019643626374250746  0.8197158993077017  1.0000
