data_image482
_chemical_formula_structural       BaTiO5BaOTiO2
_chemical_formula_sum              "Ba2 Ti2 O8"
_cell_length_a       4.141150732719546
_cell_length_b       5.870531507429093
_cell_length_c       6.667757511138915
_cell_angle_alpha    89.77504339921435
_cell_angle_beta     96.70730250555475
_cell_angle_gamma    89.98482582577263

_space_group_name_H-M_alt    "P 1"
_space_group_IT_number       1

loop_
  _space_group_symop_operation_xyz
  'x, y, z'

loop_
  _atom_site_type_symbol
  _atom_site_label
  _atom_site_symmetry_multiplicity
  _atom_site_fract_x
  _atom_site_fract_y
  _atom_site_fract_z
  _atom_site_occupancy
  Ba  Ba1       1.0  0.5615196132640885  0.19602178021890446  0.6389520872958969  1.0000
  Ti  Ti1       1.0  0.1301658331343162  0.6956424510753905  0.7102284880241888  1.0000
  O   O1        1.0  0.6165793009548639  0.19468935014595945  0.09582373906375025  1.0000
  O   O2        1.0  0.009996827522505608  0.45695302742733307  0.48129673254515054  1.0000
  O   O3        1.0  0.5556261913881854  0.6956983586753474  0.7004553968271694  1.0000
  O   O4        1.0  0.21617000138155187  0.9551779743038842  0.3192853363080905  1.0000
  O   O5        1.0  0.09984914394848532  0.9444829645070271  0.898235277004835  1.0000
  Ba  Ba2       1.0  0.6908777697141472  0.6959747398550341  0.15791290932513244  1.0000
  O   O6        1.0  0.2154594064385938  0.4360391004637741  0.31745614613838014  1.0000
  Ti  Ti2       1.0  0.18292071020403605  0.19493110729892943  0.08623296215359592  1.0000
  O   O7        1.0  0.008184609265729404  0.934194803884673  0.48176931882625046  1.0000
  O   O8        1.0  0.09835232122674506  0.44382980866964594  0.8962786808885149  1.0000
