data_image27
_chemical_formula_structural       TiBaOTiO4BaO
_chemical_formula_sum              "Ti2 Ba2 O6"
_cell_length_a       5.647139549021944
_cell_length_b       5.665997224435789
_cell_length_c       5.64797067642212
_cell_angle_alpha    61.011803817197304
_cell_angle_beta     61.19790979881156
_cell_angle_gamma    60.915717673248736

_space_group_name_H-M_alt    "P 1"
_space_group_IT_number       1

loop_
  _space_group_symop_operation_xyz
  'x, y, z'

loop_
  _atom_site_type_symbol
  _atom_site_label
  _atom_site_symmetry_multiplicity
  _atom_site_fract_x
  _atom_site_fract_y
  _atom_site_fract_z
  _atom_site_occupancy
  Ti  Ti1       1.0  0.6187152766460718  0.27328406439028136  0.8638748794278417  1.0000
  Ba  Ba1       1.0  0.37433464777866665  0.03081794264146411  0.6188944345180286  1.0000
  O   O1        1.0  0.37355126766878616  0.5428702466756465  0.12790480205646507  1.0000
  Ti  Ti2       1.0  0.11869110997528722  0.7733133400674645  0.3638513763398513  1.0000
  O   O2        1.0  0.8737906349869444  0.04261336135963115  0.6281641987418577  1.0000
  O   O3        1.0  0.38321268920700624  0.04278131607933299  0.11837005081103302  1.0000
  O   O4        1.0  0.3819062107079077  0.5347876338234717  0.627274926699606  1.0000
  O   O5        1.0  0.8819203279059236  0.03534605800193192  0.1272319334651797  1.0000
  Ba  Ba2       1.0  0.8743141593350026  0.5308474111187768  0.11886784600773619  1.0000
  O   O6        1.0  0.8829259897340104  0.5430678419519065  0.6180983334600747  1.0000
