data_image256
_chemical_formula_structural       TiBa2O4
_chemical_formula_sum              "Ti1 Ba2 O4"
_cell_length_a       4.035485185811453
_cell_length_b       4.037251981290819
_cell_length_c       7.323848724365234
_cell_angle_alpha    105.94264120374515
_cell_angle_beta     105.92898741936317
_cell_angle_gamma    89.98152002863141

_space_group_name_H-M_alt    "P 1"
_space_group_IT_number       1

loop_
  _space_group_symop_operation_xyz
  'x, y, z'

loop_
  _atom_site_type_symbol
  _atom_site_label
  _atom_site_symmetry_multiplicity
  _atom_site_fract_x
  _atom_site_fract_y
  _atom_site_fract_z
  _atom_site_occupancy
  Ti  Ti1       1.0  0.18632339652617083  0.6934822218031644  0.75244460988009  1.0000
  Ba  Ba1       1.0  0.5428023278826541  0.04987902410677148  0.46494605672567074  1.0000
  Ba  Ba2       1.0  0.8298906608934712  0.3370528237314778  0.03999859764174669  1.0000
  O   O1        1.0  0.1863240836009963  0.1934143761468506  0.7524676389634056  1.0000
  O   O2        1.0  0.6862923406030923  0.6934260754921332  0.7524205792614108  1.0000
  O   O3        1.0  0.33357096995750785  0.8409468584929864  0.04746596810052222  1.0000
  O   O4        1.0  0.039019168891667934  0.5458343223550939  0.4573428477115342  1.0000
