data_image542
_chemical_formula_structural       Ba2TiBaO4TiO3
_chemical_formula_sum              "Ba3 Ti2 O7"
_cell_length_a       4.075513295075812
_cell_length_b       4.074488330091807
_cell_length_c       11.054058074951172
_cell_angle_alpha    100.66776657023298
_cell_angle_beta     100.64878690880776
_cell_angle_gamma    89.9306009745044

_space_group_name_H-M_alt    "P 1"
_space_group_IT_number       1

loop_
  _space_group_symop_operation_xyz
  'x, y, z'

loop_
  _atom_site_type_symbol
  _atom_site_label
  _atom_site_symmetry_multiplicity
  _atom_site_fract_x
  _atom_site_fract_y
  _atom_site_fract_z
  _atom_site_occupancy
  Ba  Ba1       1.0  0.46884194619969405  0.7324114731573549  0.0655949929458067  1.0000
  Ba  Ba2       1.0  0.6580650966018984  0.9218970968972672  0.4318027987158585  1.0000
  Ti  Ti1       1.0  0.08404802261785171  0.34768139648662433  0.2554047748854234  1.0000
  Ba  Ba3       1.0  0.2796919096934957  0.5432956057150768  0.6995377118548789  1.0000
  O   O1        1.0  0.7889117847625845  0.05261239989270667  0.6928716116711048  1.0000
  O   O2        1.0  0.8783995130243061  0.6521549701822096  0.8765639745418828  1.0000
  O   O3        1.0  0.38835380570432665  0.14231799838293094  0.8765940138183125  1.0000
  O   O4        1.0  0.05887091285570816  0.8130103229256275  0.25455580306901004  1.0000
  Ti  Ti2       1.0  0.8537005574837888  0.1174062335723531  0.8758107166548628  1.0000
  O   O5        1.0  0.14859658851335739  0.41253797897989813  0.43824318456054534  1.0000
  O   O6        1.0  0.9686838887037772  0.23250282021059865  0.06552771250633124  1.0000
  O   O7        1.0  0.5489273988112957  0.3229102913452015  0.25457155516918484  1.0000
