data_image251
_chemical_formula_structural       BaTiO5Ba
_chemical_formula_sum              "Ba2 Ti1 O5"
_cell_length_a       4.101252251571676
_cell_length_b       6.1080551183589735
_cell_length_c       6.420639038085937
_cell_angle_alpha    121.31033424734976
_cell_angle_beta     94.05047537689151
_cell_angle_gamma    98.07849021090203

_space_group_name_H-M_alt    "P 1"
_space_group_IT_number       1

loop_
  _space_group_symop_operation_xyz
  'x, y, z'

loop_
  _atom_site_type_symbol
  _atom_site_label
  _atom_site_symmetry_multiplicity
  _atom_site_fract_x
  _atom_site_fract_y
  _atom_site_fract_z
  _atom_site_occupancy
  Ba  Ba1       1.0  0.05389500531906818  0.18322420736471298  0.38214243409468307  1.0000
  Ti  Ti1       1.0  0.6733519831210046  0.8586069752295631  0.7202796940076266  1.0000
  O   O1        1.0  0.6364446347002611  0.5091438296119435  0.4765909466957455  1.0000
  O   O2        1.0  0.9710566807885859  0.16740456414401325  0.9495309427053634  1.0000
  O   O3        1.0  0.49096470961734845  0.9699598210793865  0.5372139378288493  1.0000
  O   O4        1.0  0.4367502183153537  0.8733880785980845  0.983258175853196  1.0000
  O   O5        1.0  0.10449546949629095  0.6961839977679525  0.9026910683211388  1.0000
  Ba  Ba2       1.0  0.5330827394174233  0.47881948905832034  0.04915667441533982  1.0000
