data_image193
_chemical_formula_structural       O2TiBaTiO4Ba
_chemical_formula_sum              "O6 Ti2 Ba2"
_cell_length_a       5.533783073069394
_cell_length_b       5.536569168765215
_cell_length_c       4.613300323486328
_cell_angle_alpha    90.00772061853306
_cell_angle_beta     90.01163431651108
_cell_angle_gamma    90.07270986209939

_space_group_name_H-M_alt    "P 1"
_space_group_IT_number       1

loop_
  _space_group_symop_operation_xyz
  'x, y, z'

loop_
  _atom_site_type_symbol
  _atom_site_label
  _atom_site_symmetry_multiplicity
  _atom_site_fract_x
  _atom_site_fract_y
  _atom_site_fract_z
  _atom_site_occupancy
  O   O1        1.0  0.835446102221942  0.4797510738780118  0.2865414213293863  1.0000
  O   O2        1.0  0.33547414734653636  0.4797493920110774  0.2862486111659418  1.0000
  Ti  Ti1       1.0  0.0856454699231459  0.7300517924632179  0.21301134648465525  1.0000
  Ba  Ba1       1.0  0.08535803292865873  0.22987690585481196  0.7190565519063087  1.0000
  Ti  Ti2       1.0  0.5854872586637279  0.230119780807005  0.2130364623973413  1.0000
  O   O3        1.0  0.8354503055349293  0.9798103028635021  0.28566336778155244  1.0000
  O   O4        1.0  0.5851836043476168  0.22992970587404984  0.8242805156991377  1.0000
  O   O5        1.0  0.33543698013079376  0.9796887010711995  0.2864381274734497  1.0000
  O   O6        1.0  0.08543434758629578  0.7297548960430259  0.8242554904796959  1.0000
  Ba  Ba2       1.0  0.5856549302694374  0.7299794181409923  0.7191235541248682  1.0000
