data_image289
_chemical_formula_structural       TiOBaO2
_chemical_formula_sum              "Ti1 O3 Ba1"
_cell_length_a       3.9813897111658805
_cell_length_b       4.106603289576581
_cell_length_c       4.128884792327881
_cell_angle_alpha    90.60888650123526
_cell_angle_beta     90.29926725796105
_cell_angle_gamma    89.93826442518345

_space_group_name_H-M_alt    "P 1"
_space_group_IT_number       1

loop_
  _space_group_symop_operation_xyz
  'x, y, z'

loop_
  _atom_site_type_symbol
  _atom_site_label
  _atom_site_symmetry_multiplicity
  _atom_site_fract_x
  _atom_site_fract_y
  _atom_site_fract_z
  _atom_site_occupancy
  Ti  Ti1       1.0  0.12888146901899195  0.3811493261339501  0.1346982532328074  1.0000
  O   O1        1.0  0.6174381107681416  0.34216140444386406  0.1756937071797238  1.0000
  Ba  Ba1       1.0  0.6243648169642831  0.8648420245901428  0.6515343273417072  1.0000
  O   O2        1.0  0.11983625837190676  0.8326548954584924  0.16934819603812162  1.0000
  O   O3        1.0  0.12024611534029285  0.34950814578905076  0.6869470718710311  1.0000
