data_image140
_chemical_formula_structural       TiBaOBa2O3
_chemical_formula_sum              "Ti1 Ba3 O4"
_cell_length_a       5.522318377653058
_cell_length_b       5.530331891272495
_cell_length_c       6.663229942321777
_cell_angle_alpha    113.83913593753063
_cell_angle_beta     113.66735699296494
_cell_angle_gamma    90.3730480420098

_space_group_name_H-M_alt    "P 1"
_space_group_IT_number       1

loop_
  _space_group_symop_operation_xyz
  'x, y, z'

loop_
  _atom_site_type_symbol
  _atom_site_label
  _atom_site_symmetry_multiplicity
  _atom_site_fract_x
  _atom_site_fract_y
  _atom_site_fract_z
  _atom_site_occupancy
  Ti  Ti1       1.0  0.2661017344398656  0.3911833967885107  0.018058338753487252  1.0000
  Ba  Ba1       1.0  0.52578919459222  0.1569059006652674  0.48439905879607065  1.0000
  O   O1        1.0  0.2884684318081066  0.04398628174651645  0.9775263051146673  1.0000
  Ba  Ba2       1.0  0.03207068553644689  0.6507313373692328  0.48429630941053625  1.0000
  Ba  Ba3       1.0  0.75254873276505  0.8773365720528611  0.9562635099274227  1.0000
  O   O2        1.0  0.9187050911835748  0.41321450143097815  0.9781740217734888  1.0000
  O   O3        1.0  0.327269794942836  0.45282419161433535  0.7886440428084338  1.0000
  O   O4        1.0  0.4848749465335662  0.6101228670883143  0.36264374074239264  1.0000
