data_image733
_chemical_formula_structural       Ti2BaO2TiO3BaO2
_chemical_formula_sum              "Ti3 Ba2 O7"
_cell_length_a       4.028278325995103
_cell_length_b       4.1274827235584315
_cell_length_c       11.015118598937988
_cell_angle_alpha    110.73291149135308
_cell_angle_beta     100.53369785273817
_cell_angle_gamma    89.91987736450149

_space_group_name_H-M_alt    "P 1"
_space_group_IT_number       1

loop_
  _space_group_symop_operation_xyz
  'x, y, z'

loop_
  _atom_site_type_symbol
  _atom_site_label
  _atom_site_symmetry_multiplicity
  _atom_site_fract_x
  _atom_site_fract_y
  _atom_site_fract_z
  _atom_site_occupancy
  Ti  Ti1       1.0  0.6238417007877518  0.6927493135085381  0.6334932503540761  1.0000
  Ti  Ti2       1.0  0.2291597883783277  0.9818578433211791  0.8445275430170794  1.0000
  Ba  Ba1       1.0  0.0206192600982409  0.9935517797567328  0.42771410826159956  1.0000
  O   O1        1.0  0.5312984509990292  0.5155439480282759  0.44788366288299936  1.0000
  O   O2        1.0  0.2314654321074052  0.4148571808510667  0.8496705451092228  1.0000
  Ti  Ti3       1.0  0.42239114300223735  0.29889414328340297  0.2341883130184153  1.0000
  O   O3        1.0  0.4287598006380109  0.8335832024734662  0.2420802733574725  1.0000
  O   O4        1.0  0.32763240331289994  0.12374320291211786  0.04052423193748867  1.0000
  O   O5        1.0  0.9292411383873121  0.32446417728595406  0.24088930978271683  1.0000
  Ba  Ba2       1.0  0.8249957788345386  0.6310902444627309  0.037073744910382726  1.0000
  O   O6        1.0  0.12826362836381952  0.7115148449024821  0.6422397868730462  1.0000
  O   O7        1.0  0.7218743455312753  0.9111964765463496  0.8299006013561768  1.0000
