data_image63
_chemical_formula_structural       OBa2TiO2
_chemical_formula_sum              "O3 Ba2 Ti1"
_cell_length_a       3.2658447664219237
_cell_length_b       3.8656877956721463
_cell_length_c       9.81698226928711
_cell_angle_alpha    101.38118002874332
_cell_angle_beta     99.43221318516943
_cell_angle_gamma    89.96629568346812

_space_group_name_H-M_alt    "P 1"
_space_group_IT_number       1

loop_
  _space_group_symop_operation_xyz
  'x, y, z'

loop_
  _atom_site_type_symbol
  _atom_site_label
  _atom_site_symmetry_multiplicity
  _atom_site_fract_x
  _atom_site_fract_y
  _atom_site_fract_z
  _atom_site_occupancy
  O   O1        1.0  0.2808408915786723  0.30194282341514944  0.6696576273678972  1.0000
  Ba  Ba1       1.0  0.5671970226582705  0.585759068371133  0.2377764985065226  1.0000
  Ba  Ba2       1.0  0.8403655160719424  0.8618399412686484  0.7893665223646338  1.0000
  Ti  Ti1       1.0  0.7037119647788179  0.2237912628284612  0.5135636142907519  1.0000
  O   O2        1.0  0.7036477378553805  0.7237870898267571  0.5135564655684759  1.0000
  O   O3        1.0  0.12665326495187829  0.14565302903188876  0.3574687766144106  1.0000
