data_image326
_chemical_formula_structural       TiBaO2
_chemical_formula_sum              "Ti1 Ba1 O2"
_cell_length_a       4.0485768412168115
_cell_length_b       4.046841715711859
_cell_length_c       6.722260475158691
_cell_angle_alpha    72.59434365350275
_cell_angle_beta     72.57985065014691
_cell_angle_gamma    60.196618548522714

_space_group_name_H-M_alt    "P 1"
_space_group_IT_number       1

loop_
  _space_group_symop_operation_xyz
  'x, y, z'

loop_
  _atom_site_type_symbol
  _atom_site_label
  _atom_site_symmetry_multiplicity
  _atom_site_fract_x
  _atom_site_fract_y
  _atom_site_fract_z
  _atom_site_occupancy
  Ti  Ti1       1.0  0.8855341698255359  0.6812288166605159  0.7650373216456635  1.0000
  Ba  Ba1       1.0  0.3859946808974621  0.18153323723977835  0.2650605925061848  1.0000
  O   O1        1.0  0.9829310121998076  0.7785569422336269  0.47304799126781505  1.0000
  O   O2        1.0  0.7890739388334573  0.5845214089196049  0.057022375314477916  1.0000
