data_image196
_chemical_formula_structural       BaTi2O4BaO2
_chemical_formula_sum              "Ba2 Ti2 O6"
_cell_length_a       4.240571529318226
_cell_length_b       5.661370910249937
_cell_length_c       5.660407066345215
_cell_angle_alpha    90.02709103257966
_cell_angle_beta     89.92284184983754
_cell_angle_gamma    89.94568883789235

_space_group_name_H-M_alt    "P 1"
_space_group_IT_number       1

loop_
  _space_group_symop_operation_xyz
  'x, y, z'

loop_
  _atom_site_type_symbol
  _atom_site_label
  _atom_site_symmetry_multiplicity
  _atom_site_fract_x
  _atom_site_fract_y
  _atom_site_fract_z
  _atom_site_occupancy
  Ba  Ba1       1.0  0.7399935232293862  0.9196534100609435  0.5025306548294277  1.0000
  Ti  Ti1       1.0  0.25880749133034736  0.4187764877409225  0.5024200478898039  1.0000
  Ti  Ti2       1.0  0.25885414462022094  0.9187696840773145  0.0023962674582998205  1.0000
  O   O1        1.0  0.21058469062712626  0.17112225011722687  0.7530879354649722  1.0000
  O   O2        1.0  0.6874978634041623  0.4197969289559518  0.5025676036216853  1.0000
  O   O3        1.0  0.21061488584296134  0.6697443272841547  0.2518183438967016  1.0000
  O   O4        1.0  0.6875599171283432  0.9199256657634225  0.002502960872376183  1.0000
  Ba  Ba2       1.0  0.7400439261604583  0.4195660656210721  0.0026014302222640033  1.0000
  O   O5        1.0  0.21050079294297866  0.6711025368161878  0.7523032983136891  1.0000
  O   O6        1.0  0.21043681941816575  0.16977422349343146  0.25349904351124947  1.0000
