data_image58
_chemical_formula_structural       BaOTiO
_chemical_formula_sum              "Ba1 O2 Ti1"
_cell_length_a       3.301789355529171
_cell_length_b       3.3024119942534176
_cell_length_c       6.285724639892578
_cell_angle_alpha    74.82989224840809
_cell_angle_beta     74.82405204094732
_cell_angle_gamma    60.13730830476651

_space_group_name_H-M_alt    "P 1"
_space_group_IT_number       1

loop_
  _space_group_symop_operation_xyz
  'x, y, z'

loop_
  _atom_site_type_symbol
  _atom_site_label
  _atom_site_symmetry_multiplicity
  _atom_site_fract_x
  _atom_site_fract_y
  _atom_site_fract_z
  _atom_site_occupancy
  Ba  Ba1       1.0  0.4434972460733142  0.7700040313022046  0.7620688685550874  1.0000
  O   O1        1.0  0.665380106664118  0.9919428284079309  0.09644804843573347  1.0000
  Ti  Ti1       1.0  0.9434817150027942  0.2700722750509143  0.2622170168942292  1.0000
  O   O2        1.0  0.22163581440556882  0.5482180076875391  0.4277645684759943  1.0000
