data_image31
_chemical_formula_structural       O2TiOBaO
_chemical_formula_sum              "O4 Ti1 Ba1"
_cell_length_a       3.29101810203436
_cell_length_b       5.521701660764383
_cell_length_c       5.533994197845459
_cell_angle_alpha    91.28995883012148
_cell_angle_beta     89.98638993804447
_cell_angle_gamma    89.96135046571732

_space_group_name_H-M_alt    "P 1"
_space_group_IT_number       1

loop_
  _space_group_symop_operation_xyz
  'x, y, z'

loop_
  _atom_site_type_symbol
  _atom_site_label
  _atom_site_symmetry_multiplicity
  _atom_site_fract_x
  _atom_site_fract_y
  _atom_site_fract_z
  _atom_site_occupancy
  O   O1        1.0  0.8758496641806456  0.9972391246857443  0.6309678958043469  1.0000
  O   O2        1.0  0.8762076423086229  0.4783915962815514  0.11114107322808338  1.0000
  Ti  Ti1       1.0  0.8800625428707815  0.2378735211737771  0.8709853645174421  1.0000
  O   O3        1.0  0.3765293786060131  0.08526400823330109  0.023276214523883187  1.0000
  Ba  Ba1       1.0  0.37623418392428387  0.7379990480026861  0.3708457281060722  1.0000
  O   O4        1.0  0.3761706863812605  0.39060442056747036  0.7186493329959199  1.0000
