data_image895
_chemical_formula_structural       BaTiO2
_chemical_formula_sum              "Ba1 Ti1 O2"
_cell_length_a       3.2840783107913767
_cell_length_b       3.283568498531078
_cell_length_c       6.466996669769287
_cell_angle_alpha    75.30900871557155
_cell_angle_beta     75.26242779969857
_cell_angle_gamma    59.94210291424844

_space_group_name_H-M_alt    "P 1"
_space_group_IT_number       1

loop_
  _space_group_symop_operation_xyz
  'x, y, z'

loop_
  _atom_site_type_symbol
  _atom_site_label
  _atom_site_symmetry_multiplicity
  _atom_site_fract_x
  _atom_site_fract_y
  _atom_site_fract_z
  _atom_site_occupancy
  Ba  Ba1       1.0  0.5198119367231289  0.7119129916373041  0.8030199698035886  1.0000
  Ti  Ti1       1.0  0.3497717387821521  0.5418220574992375  0.3135866229059538  1.0000
  O   O1        1.0  0.9625515512647032  0.15479710404475489  0.47491046774779766  1.0000
  O   O2        1.0  0.7389130012564685  0.9307994635649975  0.14625492763864067  1.0000
