data_image224
_chemical_formula_structural       OBaOBaTiOTiO
_chemical_formula_sum              "O4 Ba2 Ti2"
_cell_length_a       3.808241410051855
_cell_length_b       3.816402479968639
_cell_length_c       10.909210205078125
_cell_angle_alpha    90.04612677184863
_cell_angle_beta     90.00858122254411
_cell_angle_gamma    90.02765110898552

_space_group_name_H-M_alt    "P 1"
_space_group_IT_number       1

loop_
  _space_group_symop_operation_xyz
  'x, y, z'

loop_
  _atom_site_type_symbol
  _atom_site_label
  _atom_site_symmetry_multiplicity
  _atom_site_fract_x
  _atom_site_fract_y
  _atom_site_fract_z
  _atom_site_occupancy
  O   O1        1.0  0.43583093495105685  0.7148361670739517  0.9310708866308492  1.0000
  Ba  Ba1       1.0  0.4366425005691691  0.7157611404624548  0.47149536085130805  1.0000
  O   O2        1.0  0.9366004348932431  0.215488200128171  0.40509873367898364  1.0000
  Ba  Ba2       1.0  0.9354985822767661  0.21445059984295348  0.8649777549475486  1.0000
  Ti  Ti1       1.0  0.4359827137236504  0.7150582833821159  0.10359629305455355  1.0000
  O   O3        1.0  0.43629901658268977  0.21520926528128048  0.16741996662858916  1.0000
  Ti  Ti2       1.0  0.9363266255048027  0.2151349879874988  0.2326433196627117  1.0000
  O   O4        1.0  0.9360201037569987  0.7149854733957738  0.16825377872953867  1.0000
