data_image1041
_chemical_formula_structural       OBaTiOTiBaO6
_chemical_formula_sum              "O8 Ba2 Ti2"
_cell_length_a       4.086613814163076
_cell_length_b       5.8784444923705355
_cell_length_c       6.633645534515381
_cell_angle_alpha    90.09121967348153
_cell_angle_beta     96.42644529450307
_cell_angle_gamma    90.00424405314851

_space_group_name_H-M_alt    "P 1"
_space_group_IT_number       1

loop_
  _space_group_symop_operation_xyz
  'x, y, z'

loop_
  _atom_site_type_symbol
  _atom_site_label
  _atom_site_symmetry_multiplicity
  _atom_site_fract_x
  _atom_site_fract_y
  _atom_site_fract_z
  _atom_site_occupancy
  O   O1        1.0  0.7981414817594885  0.3104795207524358  0.6190040384754433  1.0000
  Ba  Ba1       1.0  0.2361712152208951  0.5608557915187997  0.35847939591919  1.0000
  Ti  Ti1       1.0  0.7794618132138206  0.5608441069005025  0.8079152286159959  1.0000
  O   O2        1.0  0.9043130579604131  0.32395569052418033  0.037089772403691566  1.0000
  Ti  Ti2       1.0  0.8166165866968124  0.060571710969956796  0.42973494120519773  1.0000
  Ba  Ba2       1.0  0.3598705485659305  0.060778347169448  0.8791471885848874  1.0000
  O   O3        1.0  0.90472417401772  0.7976082036707995  0.03715239496153662  1.0000
  O   O4        1.0  0.7979439405610778  0.8104816778668658  0.6186506997780401  1.0000
  O   O5        1.0  0.346568014568069  0.5609054926575768  0.821962803550415  1.0000
  O   O6        1.0  0.6919874735414959  0.2976307431557564  0.20077279056084482  1.0000
  O   O7        1.0  0.24952825075145046  0.06041299285728308  0.41574440035184484  1.0000
  O   O8        1.0  0.6913167923545724  0.8239471550428077  0.2002949151442608  1.0000
