data_image245
_chemical_formula_structural       OBaTiOBaO2
_chemical_formula_sum              "O4 Ba2 Ti1"
_cell_length_a       4.030790329517953
_cell_length_b       4.033599235866701
_cell_length_c       7.312193393707275
_cell_angle_alpha    106.11964515388843
_cell_angle_beta     106.12169312888628
_cell_angle_gamma    90.09051612848744

_space_group_name_H-M_alt    "P 1"
_space_group_IT_number       1

loop_
  _space_group_symop_operation_xyz
  'x, y, z'

loop_
  _atom_site_type_symbol
  _atom_site_label
  _atom_site_symmetry_multiplicity
  _atom_site_fract_x
  _atom_site_fract_y
  _atom_site_fract_z
  _atom_site_occupancy
  O   O1        1.0  0.15155204449296547  0.7326018657740734  0.9997125231511343  1.0000
  Ba  Ba1       1.0  0.35811361478784043  0.9392329272940524  0.41551946542807827  1.0000
  Ti  Ti1       1.0  0.00271914421251449  0.5838450982322567  0.7036819068034683  1.0000
  O   O2        1.0  0.8539873044330256  0.43509007955216283  0.40767615387361295  1.0000
  Ba  Ba2       1.0  0.647469930101041  0.22850983500627842  0.9919453395776626  1.0000
  O   O3        1.0  0.0028520704111343765  0.0838539384671215  0.703693960972684  1.0000
  O   O4        1.0  0.5028679709723578  0.5838624430667713  0.7036856837612665  1.0000
