data_image607
_chemical_formula_structural       BaO2Ti
_chemical_formula_sum              "Ba1 O2 Ti1"
_cell_length_a       3.3087980211682786
_cell_length_b       3.307676261846546
_cell_length_c       6.3249101638793945
_cell_angle_alpha    74.87355079622183
_cell_angle_beta     74.87544972056847
_cell_angle_gamma    60.06805395509481

_space_group_name_H-M_alt    "P 1"
_space_group_IT_number       1

loop_
  _space_group_symop_operation_xyz
  'x, y, z'

loop_
  _atom_site_type_symbol
  _atom_site_label
  _atom_site_symmetry_multiplicity
  _atom_site_fract_x
  _atom_site_fract_y
  _atom_site_fract_z
  _atom_site_occupancy
  Ba  Ba1       1.0  0.6510853434359755  0.9711060311476784  0.648751348053102  1.0000
  O   O1        1.0  0.8730866752179116  0.1931822297565741  0.9831322803052878  1.0000
  O   O2        1.0  0.42952829933280073  0.7493514840094363  0.3143796443051772  1.0000
  Ti  Ti1       1.0  0.15174472432526043  0.47137552115450165  0.14860295689828665  1.0000
