data_image320
_chemical_formula_structural       OBaTi2O3BaO4
_chemical_formula_sum              "O8 Ba2 Ti2"
_cell_length_a       3.990306110168839
_cell_length_b       6.208323889705412
_cell_length_c       7.305075645446777
_cell_angle_alpha    89.84464301276608
_cell_angle_beta     105.3100007384948
_cell_angle_gamma    89.93405019262929

_space_group_name_H-M_alt    "P 1"
_space_group_IT_number       1

loop_
  _space_group_symop_operation_xyz
  'x, y, z'

loop_
  _atom_site_type_symbol
  _atom_site_label
  _atom_site_symmetry_multiplicity
  _atom_site_fract_x
  _atom_site_fract_y
  _atom_site_fract_z
  _atom_site_occupancy
  O   O1        1.0  0.9689975968895475  0.9468972212144651  0.7141608119444225  1.0000
  Ba  Ba1       1.0  0.16069554741834993  0.16226062693359178  0.05906618169519671  1.0000
  Ti  Ti1       1.0  0.7381698567523325  0.6603619475417716  0.18330730265948683  1.0000
  Ti  Ti2       1.0  0.8652983321640391  0.15971695846523265  0.5370896740189022  1.0000
  O   O2        1.0  0.6345853091877386  0.4479871302413609  0.00697600452801872  1.0000
  O   O3        1.0  0.3700721903133441  0.1570470866373225  0.5057831302508463  1.0000
  O   O4        1.0  0.6282820933854646  0.8821506799958017  0.9959550893731731  1.0000
  Ba  Ba2       1.0  0.44289252163620263  0.6620734461863821  0.6615059056885143  1.0000
  O   O5        1.0  0.23333394356439155  0.6581474176441853  0.2144124940328297  1.0000
  O   O6        1.0  0.7858319097027893  0.9547201957632144  0.3191757840916897  1.0000
  O   O7        1.0  0.9753637850970891  0.380958525637238  0.7237869238562696  1.0000
  O   O8        1.0  0.81750951383934  0.4548397166053995  0.40141732792822493  1.0000
