data_image1033
_chemical_formula_structural       BaOBaOTiO
_chemical_formula_sum              "Ba2 O3 Ti1"
_cell_length_a       3.966628863224539
_cell_length_b       4.036918646909832
_cell_length_c       7.376589775085449
_cell_angle_alpha    105.84432771743498
_cell_angle_beta     105.59867862264994
_cell_angle_gamma    90.03945994729641

_space_group_name_H-M_alt    "P 1"
_space_group_IT_number       1

loop_
  _space_group_symop_operation_xyz
  'x, y, z'

loop_
  _atom_site_type_symbol
  _atom_site_label
  _atom_site_symmetry_multiplicity
  _atom_site_fract_x
  _atom_site_fract_y
  _atom_site_fract_z
  _atom_site_occupancy
  Ba  Ba1       1.0  0.5843692356596449  0.09305191054379008  0.3698032203156899  1.0000
  O   O1        1.0  0.07765553007417554  0.5862220094383424  0.3564108067483559  1.0000
  Ba  Ba2       1.0  0.2837244361898825  0.7924154427651945  0.7685678969380659  1.0000
  O   O2        1.0  0.7903714006609909  0.29909276101996557  0.781974088716764  1.0000
  Ti  Ti1       1.0  0.9340784691254964  0.44271097755933037  0.06921900336186436  1.0000
  O   O3        1.0  0.9341277081699856  0.9426784108474973  0.06919948823478192  1.0000
