data_image964
_chemical_formula_structural       O2Ba2O2TiO2
_chemical_formula_sum              "O6 Ba2 Ti1"
_cell_length_a       5.04963895621831
_cell_length_b       6.201368842426554
_cell_length_c       6.204651355743408
_cell_angle_alpha    61.1015341737488
_cell_angle_beta     66.34166705005653
_cell_angle_gamma    66.26687784914523

_space_group_name_H-M_alt    "P 1"
_space_group_IT_number       1

loop_
  _space_group_symop_operation_xyz
  'x, y, z'

loop_
  _atom_site_type_symbol
  _atom_site_label
  _atom_site_symmetry_multiplicity
  _atom_site_fract_x
  _atom_site_fract_y
  _atom_site_fract_z
  _atom_site_occupancy
  O   O1        1.0  0.653330922483497  0.9093860292587056  0.2901503650263931  1.0000
  O   O2        1.0  0.8908480085362745  0.16156403710604153  0.3452670055454946  1.0000
  Ba  Ba1       1.0  0.29702936333124913  0.3394133317296507  0.3329567843015076  1.0000
  Ba  Ba2       1.0  0.823785685557644  0.7902634017892411  0.783488384603617  1.0000
  O   O3        1.0  0.23018249606783203  0.777323423322646  0.9610634333156478  1.0000
  O   O4        1.0  0.46769397289192177  0.8318601746678369  0.21360886359713213  1.0000
  Ti  Ti1       1.0  0.06104655837042811  0.02834712848157768  0.09433759047467594  1.0000
  O   O5        1.0  0.9124298998184827  0.318226792591079  0.8045173909746984  1.0000
  O   O6        1.0  0.21086093510330026  0.3176635491043468  0.8051273678109013  1.0000
