data_image902
_chemical_formula_structural       OBa2TiO2BaO2
_chemical_formula_sum              "O5 Ba3 Ti1"
_cell_length_a       3.9807937345452538
_cell_length_b       6.179029372902489
_cell_length_c       7.300000190734863
_cell_angle_alpha    115.0177487781747
_cell_angle_beta     105.83942245169114
_cell_angle_gamma    90.03498642173602

_space_group_name_H-M_alt    "P 1"
_space_group_IT_number       1

loop_
  _space_group_symop_operation_xyz
  'x, y, z'

loop_
  _atom_site_type_symbol
  _atom_site_label
  _atom_site_symmetry_multiplicity
  _atom_site_fract_x
  _atom_site_fract_y
  _atom_site_fract_z
  _atom_site_occupancy
  O   O1        1.0  0.16797026197503775  0.21287619480591924  0.4789674355733839  1.0000
  Ba  Ba1       1.0  0.5517363451769157  0.8249946888585381  0.24683759903505834  1.0000
  Ba  Ba2       1.0  0.3406274162661622  0.11368470511202738  0.824413995117391  1.0000
  Ti  Ti1       1.0  0.0520736083800693  0.32469652755294814  0.24689003943293147  1.0000
  O   O2        1.0  0.16794731354406156  0.6687914327246374  0.47878474558218953  1.0000
  O   O3        1.0  0.9359407708581046  0.4365486696552437  0.01484461273795617  1.0000
  Ba  Ba3       1.0  0.7633341313284088  0.5361954422076707  0.6693838866696257  1.0000
  O   O4        1.0  0.5518187707544187  0.32466677336892313  0.24686574025556285  1.0000
  O   O5        1.0  0.9358826577889903  0.9805828210710186  0.015126942489390546  1.0000
