data_image229
_chemical_formula_structural       TiBaO2
_chemical_formula_sum              "Ti1 Ba1 O2"
_cell_length_a       3.3114779714674905
_cell_length_b       3.312426242334443
_cell_length_c       6.290886878967285
_cell_angle_alpha    74.75025765069572
_cell_angle_beta     74.75299132687357
_cell_angle_gamma    60.05138440188716

_space_group_name_H-M_alt    "P 1"
_space_group_IT_number       1

loop_
  _space_group_symop_operation_xyz
  'x, y, z'

loop_
  _atom_site_type_symbol
  _atom_site_label
  _atom_site_symmetry_multiplicity
  _atom_site_fract_x
  _atom_site_fract_y
  _atom_site_fract_z
  _atom_site_occupancy
  Ti  Ti1       1.0  0.8003948044597707  0.39120798019646263  0.44025661022737056  1.0000
  Ba  Ba1       1.0  0.30071362739223995  0.8912191405633447  0.940246775110868  1.0000
  O   O1        1.0  0.0787181775621187  0.6694034329872428  0.6056050752353364  1.0000
  O   O2        1.0  0.5222455739179058  0.11301317860497044  0.2749044472696432  1.0000
