data_image154
_chemical_formula_structural       BaO3TiO
_chemical_formula_sum              "Ba1 O4 Ti1"
_cell_length_a       3.945353561256673
_cell_length_b       4.200478801000324
_cell_length_c       5.149836540222168
_cell_angle_alpha    95.51053787188016
_cell_angle_beta     89.97796831409434
_cell_angle_gamma    90.03363435207866

_space_group_name_H-M_alt    "P 1"
_space_group_IT_number       1

loop_
  _space_group_symop_operation_xyz
  'x, y, z'

loop_
  _atom_site_type_symbol
  _atom_site_label
  _atom_site_symmetry_multiplicity
  _atom_site_fract_x
  _atom_site_fract_y
  _atom_site_fract_z
  _atom_site_occupancy
  Ba  Ba1       1.0  0.3041748392908486  0.7175442417545285  0.12598733229917186  1.0000
  O   O1        1.0  0.30455919518377766  0.28894770235477346  0.498465248309971  1.0000
  O   O2        1.0  0.8046553820530084  0.15693108537125952  0.11044989334508402  1.0000
  O   O3        1.0  0.8040504601292328  0.376861452385934  0.906491220246093  1.0000
  Ti  Ti1       1.0  0.8036966910064575  0.23051994779299237  0.5298958635083891  1.0000
  O   O4        1.0  0.8041974450576285  0.806003884999635  0.5074664837512244  1.0000
