data_image1089
_chemical_formula_structural       TiOBaO2
_chemical_formula_sum              "Ti1 O3 Ba1"
_cell_length_a       3.9813897111658805
_cell_length_b       4.106603289576581
_cell_length_c       4.128884792327881
_cell_angle_alpha    90.60888650123526
_cell_angle_beta     90.29926725796105
_cell_angle_gamma    89.93826442518345

_space_group_name_H-M_alt    "P 1"
_space_group_IT_number       1

loop_
  _space_group_symop_operation_xyz
  'x, y, z'

loop_
  _atom_site_type_symbol
  _atom_site_label
  _atom_site_symmetry_multiplicity
  _atom_site_fract_x
  _atom_site_fract_y
  _atom_site_fract_z
  _atom_site_occupancy
  Ti  Ti1       1.0  0.12888148046850292  0.3811493324946471  0.13469825468881905  1.0000
  O   O1        1.0  0.6174380942887436  0.34216140070381007  0.17569370487680583  1.0000
  Ba  Ba1       1.0  0.6243648159623106  0.8648420185080783  0.6515343342246328  1.0000
  O   O2        1.0  0.11983626297570625  0.8326549013739291  0.16934819310562121  1.0000
  O   O3        1.0  0.12024611768527109  0.34950814387534346  0.6869470686472593  1.0000
