data_image164
_chemical_formula_structural       BaTiBa2O2TiO5
_chemical_formula_sum              "Ba3 Ti2 O7"
_cell_length_a       4.0691112985606885
_cell_length_b       4.074316087066358
_cell_length_c       11.04633617401123
_cell_angle_alpha    100.8672228619827
_cell_angle_beta     100.84130239670827
_cell_angle_gamma    90.0579908176104

_space_group_name_H-M_alt    "P 1"
_space_group_IT_number       1

loop_
  _space_group_symop_operation_xyz
  'x, y, z'

loop_
  _atom_site_type_symbol
  _atom_site_label
  _atom_site_symmetry_multiplicity
  _atom_site_fract_x
  _atom_site_fract_y
  _atom_site_fract_z
  _atom_site_occupancy
  Ba  Ba1       1.0  0.22330037915496567  0.24842426655265887  0.6849713551413386  1.0000
  Ti  Ti1       1.0  0.8055943155050089  0.8302945333887498  0.8747598216473251  1.0000
  Ba  Ba2       1.0  0.40819021022155  0.4332013456478441  0.051439014808005376  1.0000
  Ba  Ba3       1.0  0.03947754561232323  0.06480104904346008  0.3184386845335666  1.0000
  O   O1        1.0  0.740238789334341  0.7658003595295482  0.6849584619860429  1.0000
  O   O2        1.0  0.1506556868798592  0.6652806062489248  0.4959905625812059  1.0000
  Ti  Ti2       1.0  0.6151485933263089  0.6399384357483873  0.4951503473247037  1.0000
  O   O3        1.0  0.8291253208347862  0.36623155141135505  0.8738167596986394  1.0000
  O   O4        1.0  0.5497156636195742  0.5755136515991001  0.3118033922706691  1.0000
  O   O5        1.0  0.3405451741865795  0.8545068587285661  0.8738142498962014  1.0000
  O   O6        1.0  0.9264565355695115  0.9516884329884677  0.05800187068601549  1.0000
  O   O7        1.0  0.6394140542600525  0.17679161577291488  0.4959546714259175  1.0000
