data_image90
_chemical_formula_structural       BaOTiO2
_chemical_formula_sum              "Ba1 O3 Ti1"
_cell_length_a       4.045928650935182
_cell_length_b       4.098169935596126
_cell_length_c       4.102991580963135
_cell_angle_alpha    89.57966584594682
_cell_angle_beta     89.69993180864887
_cell_angle_gamma    89.67546607678103

_space_group_name_H-M_alt    "P 1"
_space_group_IT_number       1

loop_
  _space_group_symop_operation_xyz
  'x, y, z'

loop_
  _atom_site_type_symbol
  _atom_site_label
  _atom_site_symmetry_multiplicity
  _atom_site_fract_x
  _atom_site_fract_y
  _atom_site_fract_z
  _atom_site_occupancy
  Ba  Ba1       1.0  0.2877845183647518  0.7577059190194644  0.6933696321760456  1.0000
  O   O1        1.0  0.30905966515870636  0.2766454395164038  0.21269220297931699  1.0000
  Ti  Ti1       1.0  0.7745520082000467  0.24213436338129582  0.17773729099770738  1.0000
  O   O2        1.0  0.7998860254385053  0.7883219101258674  0.21016582658192368  1.0000
  O   O3        1.0  0.7993991226297867  0.2738017225597977  0.724900441227278  1.0000
