data_image1058
_chemical_formula_structural       OBa2O2TiOTiBaO2BaTiO5TiO
_chemical_formula_sum              "O12 Ba4 Ti4"
_cell_length_a       4.269284725628708
_cell_length_b       7.978971090966135
_cell_length_c       8.922926902770996
_cell_angle_alpha    116.63131215763734
_cell_angle_beta     90.00082212721063
_cell_angle_gamma    89.98418378657276

_space_group_name_H-M_alt    "P 1"
_space_group_IT_number       1

loop_
  _space_group_symop_operation_xyz
  'x, y, z'

loop_
  _atom_site_type_symbol
  _atom_site_label
  _atom_site_symmetry_multiplicity
  _atom_site_fract_x
  _atom_site_fract_y
  _atom_site_fract_z
  _atom_site_occupancy
  O   O1        1.0  0.6164733632831488  0.8261222669842521  0.8886622098027177  1.0000
  Ba  Ba1       1.0  0.6725054314504344  0.9511998737123396  0.6387519451208472  1.0000
  Ba  Ba2       1.0  0.6725562686429252  0.7012501190626473  0.13870797142906732  1.0000
  O   O2        1.0  0.14031411393408233  0.201420950839551  0.6388040207133742  1.0000
  O   O3        1.0  0.14048962067117912  0.3264854466601817  0.38873291196127985  1.0000
  Ti  Ti1       1.0  0.19120755839559442  0.3261047448999181  0.8886971671796564  1.0000
  O   O4        1.0  0.14069299799672677  0.8265790091850106  0.3888655981816075  1.0000
  Ti  Ti2       1.0  0.19128463682507155  0.5759670685553976  0.38864720058291746  1.0000
  Ba  Ba3       1.0  0.6725256075052476  0.20113873123047715  0.13861578311714645  1.0000
  O   O5        1.0  0.6163596217795194  0.5763694962486806  0.3886429619306173  1.0000
  O   O6        1.0  0.6164176567440915  0.3261686686837118  0.8888321128296242  1.0000
  Ba  Ba4       1.0  0.6724438524639947  0.451300435095497  0.638928524942279  1.0000
  Ti  Ti3       1.0  0.1913636197832091  0.0761107636883938  0.38874372175850513  1.0000
  O   O7        1.0  0.14093113387045517  0.07630832297095781  0.8886703004103624  1.0000
  O   O8        1.0  0.14026241083724855  0.4512311033842828  0.13879159184134177  1.0000
  O   O9        1.0  0.6165525961149328  0.0765097665000437  0.3888358289323739  1.0000
  O   O10       1.0  0.1412017211325157  0.5763301195245507  0.8888352690697843  1.0000
  O   O11       1.0  0.14064203693095018  0.7013501074555123  0.6387769345232225  1.0000
  Ti  Ti4       1.0  0.1911543167848668  0.8261268703450668  0.8885894104487357  1.0000
  O   O12       1.0  0.14100089377354943  0.9514580397202627  0.1386857788535455  1.0000
