data_image231
_chemical_formula_structural       Ti2O2Ba2O5Ti
_chemical_formula_sum              "Ti3 O7 Ba2"
_cell_length_a       4.081956466319996
_cell_length_b       6.027766044617131
_cell_length_c       8.222442626953125
_cell_angle_alpha    80.8752795744309
_cell_angle_beta     75.73838371009813
_cell_angle_gamma    70.15123151203545

_space_group_name_H-M_alt    "P 1"
_space_group_IT_number       1

loop_
  _space_group_symop_operation_xyz
  'x, y, z'

loop_
  _atom_site_type_symbol
  _atom_site_label
  _atom_site_symmetry_multiplicity
  _atom_site_fract_x
  _atom_site_fract_y
  _atom_site_fract_z
  _atom_site_occupancy
  Ti  Ti1       1.0  0.7914265860310533  0.10334137865313357  0.10359319997883237  1.0000
  Ti  Ti2       1.0  0.5063773462501315  0.7924587862099615  0.9835210352977539  1.0000
  O   O1        1.0  0.3458846000149539  0.7007606707788874  0.4779584857328421  1.0000
  O   O2        1.0  0.991588600037185  0.7892275654442105  0.012405753436369748  1.0000
  Ba  Ba1       1.0  0.014637137488873903  0.46979087267329034  0.3140795890570573  1.0000
  Ba  Ba2       1.0  0.3067569791074289  0.42639860710251165  0.7727296861026138  1.0000
  O   O3        1.0  0.03355767943753748  0.1948251864970703  0.6087194324877988  1.0000
  O   O4        1.0  0.6499835379565218  0.4479235805998636  0.04365026459254183  1.0000
  O   O5        1.0  0.30206643249050835  0.1066937935562378  0.07439343230757883  1.0000
  O   O6        1.0  0.6581294453738689  0.08570947429995002  0.3432016249730464  1.0000
  O   O7        1.0  0.5961674607402582  0.8090863681229423  0.7437808027660895  1.0000
  Ti  Ti3       1.0  0.4222767225700165  0.947720338928387  0.5433723996939347  1.0000
