data_image384
_chemical_formula_structural       BaTiBaO2TiO4BaO
_chemical_formula_sum              "Ba3 Ti2 O7"
_cell_length_a       4.0879194261819665
_cell_length_b       3.997990798596591
_cell_length_c       11.799365043640137
_cell_angle_alpha    99.73759202548014
_cell_angle_beta     91.1293742530094
_cell_angle_gamma    89.99907359444786

_space_group_name_H-M_alt    "P 1"
_space_group_IT_number       1

loop_
  _space_group_symop_operation_xyz
  'x, y, z'

loop_
  _atom_site_type_symbol
  _atom_site_label
  _atom_site_symmetry_multiplicity
  _atom_site_fract_x
  _atom_site_fract_y
  _atom_site_fract_z
  _atom_site_occupancy
  Ba  Ba1       1.0  0.9379204999352274  0.083944225435922  0.9269565447611209  1.0000
  Ti  Ti1       1.0  0.3492830948860587  0.2592421343195503  0.2802177566129132  1.0000
  Ba  Ba2       1.0  0.4108674921947555  0.4615447327665947  0.6830680112962202  1.0000
  O   O1        1.0  0.41539779771162094  0.17122268910764593  0.10259916823349369  1.0000
  O   O2        1.0  0.4094221970121569  0.3420015485789695  0.446612550803732  1.0000
  Ti  Ti2       1.0  0.47257018467089107  0.6631358893638385  0.08599597786533403  1.0000
  O   O3        1.0  0.40639959089967304  0.7511151443709481  0.26364603324004243  1.0000
  O   O4        1.0  0.918796496936948  0.2636625906135391  0.2893151176105411  1.0000
  O   O5        1.0  0.9030228667307211  0.6586649043358361  0.07693532577006872  1.0000
  O   O6        1.0  0.4124433092946098  0.5803569335868799  0.9196081543016192  1.0000
  Ba  Ba3       1.0  0.884159072887332  0.83858529410291  0.43918180313271565  1.0000
  O   O7        1.0  0.9128734680697749  0.9625247802139477  0.6831060151727617  1.0000
