data_image260
_chemical_formula_structural       Ba2OTiO2
_chemical_formula_sum              "Ba2 O3 Ti1"
_cell_length_a       3.9636886234304756
_cell_length_b       4.03244696123538
_cell_length_c       7.369200706481933
_cell_angle_alpha    105.87501993918453
_cell_angle_beta     105.67085267156052
_cell_angle_gamma    90.04166673956854

_space_group_name_H-M_alt    "P 1"
_space_group_IT_number       1

loop_
  _space_group_symop_operation_xyz
  'x, y, z'

loop_
  _atom_site_type_symbol
  _atom_site_label
  _atom_site_symmetry_multiplicity
  _atom_site_fract_x
  _atom_site_fract_y
  _atom_site_fract_z
  _atom_site_occupancy
  Ba  Ba1       1.0  0.9074858073877052  0.061049590116226043  0.2967649414636655  1.0000
  Ba  Ba2       1.0  0.20856236038584752  0.3618781501715308  0.8984497690859528  1.0000
  O   O1        1.0  0.5579699772791306  0.21146717197572718  0.5975521020996513  1.0000
  Ti  Ti1       1.0  0.5580269797094841  0.711508202337744  0.597623992136708  1.0000
  O   O2        1.0  0.7018673518887423  0.8552735619008872  0.8850983076521342  1.0000
  O   O3        1.0  0.4141361941389064  0.5676606731567678  0.3100127977246429  1.0000
