data_image807
_chemical_formula_structural       TiBaO4
_chemical_formula_sum              "Ti1 Ba1 O4"
_cell_length_a       3.8496479732863524
_cell_length_b       4.711273600527848
_cell_length_c       4.944406509399414
_cell_angle_alpha    92.57182828665104
_cell_angle_beta     95.29186236261725
_cell_angle_gamma    84.78847969718514

_space_group_name_H-M_alt    "P 1"
_space_group_IT_number       1

loop_
  _space_group_symop_operation_xyz
  'x, y, z'

loop_
  _atom_site_type_symbol
  _atom_site_label
  _atom_site_symmetry_multiplicity
  _atom_site_fract_x
  _atom_site_fract_y
  _atom_site_fract_z
  _atom_site_occupancy
  Ti  Ti1       1.0  0.8321766138310553  0.46577008737714043  0.25516199480718377  1.0000
  Ba  Ba1       1.0  0.389874497403183  0.995224473594339  0.7335386806161749  1.0000
  O   O1        1.0  0.8427092395573923  0.8816577464205636  0.32631652448719645  1.0000
  O   O2        1.0  0.954740007970382  0.06156175765335909  0.12089884357754266  1.0000
  O   O3        1.0  0.847639559336941  0.4246040957266413  0.6079562699028908  1.0000
  O   O4        1.0  0.3625365606435809  0.48193173684178164  0.13347979241556007  1.0000
