data_image168
_chemical_formula_structural       BaO2TiO
_chemical_formula_sum              "Ba1 O3 Ti1"
_cell_length_a       4.081768658406815
_cell_length_b       4.0833156320112485
_cell_length_c       4.087787628173828
_cell_angle_alpha    89.73076328473945
_cell_angle_beta     90.23873127712561
_cell_angle_gamma    90.23289146233577

_space_group_name_H-M_alt    "P 1"
_space_group_IT_number       1

loop_
  _space_group_symop_operation_xyz
  'x, y, z'

loop_
  _atom_site_type_symbol
  _atom_site_label
  _atom_site_symmetry_multiplicity
  _atom_site_fract_x
  _atom_site_fract_y
  _atom_site_fract_z
  _atom_site_occupancy
  Ba  Ba1       1.0  0.7297695290825887  0.47891084934173467  0.7369391362342955  1.0000
  O   O1        1.0  0.24535455651530966  0.9629878737267744  0.7085057662057332  1.0000
  O   O2        1.0  0.7577206730546604  0.9621566894230882  0.22081730301327232  1.0000
  Ti  Ti1       1.0  0.21479324639813627  0.993879791696836  0.25240698492108704  1.0000
  O   O3        1.0  0.2460291100259505  0.45051119377242815  0.2210003165354939  1.0000
