data_image627
_chemical_formula_structural       TiBaO2
_chemical_formula_sum              "Ti1 Ba1 O2"
_cell_length_a       3.3107174770967664
_cell_length_b       3.3107827495395115
_cell_length_c       6.32126522064209
_cell_angle_alpha    74.85607135578162
_cell_angle_beta     74.8466809327395
_cell_angle_gamma    60.04563038944284

_space_group_name_H-M_alt    "P 1"
_space_group_IT_number       1

loop_
  _space_group_symop_operation_xyz
  'x, y, z'

loop_
  _atom_site_type_symbol
  _atom_site_label
  _atom_site_symmetry_multiplicity
  _atom_site_fract_x
  _atom_site_fract_y
  _atom_site_fract_z
  _atom_site_occupancy
  Ti  Ti1       1.0  0.8276343137217299  0.26852678167610194  0.8803654726913207  1.0000
  Ba  Ba1       1.0  0.32807031734999315  0.7686497397423888  0.3803197515523401  1.0000
  O   O1        1.0  0.5497280350520733  0.9904516432100949  0.7146630337638289  1.0000
  O   O2        1.0  0.10591030553702248  0.5467361380843272  0.04601727462615255  1.0000
