data_image480
_chemical_formula_structural       Ba3TiOBaO5
_chemical_formula_sum              "Ba4 Ti1 O6"
_cell_length_a       4.1260630153835365
_cell_length_b       4.1310380040923205
_cell_length_c       13.331318855285646
_cell_angle_alpha    98.85890806007323
_cell_angle_beta     98.83631312045085
_cell_angle_gamma    90.09738739982075

_space_group_name_H-M_alt    "P 1"
_space_group_IT_number       1

loop_
  _space_group_symop_operation_xyz
  'x, y, z'

loop_
  _atom_site_type_symbol
  _atom_site_label
  _atom_site_symmetry_multiplicity
  _atom_site_fract_x
  _atom_site_fract_y
  _atom_site_fract_z
  _atom_site_occupancy
  Ba  Ba1       1.0  0.0626587624457078  0.34235271650513754  0.7075289450679856  1.0000
  Ba  Ba2       1.0  0.23059038236345444  0.510703884994247  0.03485989820441841  1.0000
  Ba  Ba3       1.0  0.48200126759570816  0.7307639110490707  0.49403563150463253  1.0000
  Ti  Ti1       1.0  0.6442065656869191  0.9234593802339912  0.8364396545303564  1.0000
  O   O1        1.0  0.782759262563814  0.5631665786277644  0.14069652673236696  1.0000
  Ba  Ba4       1.0  0.8336418294698351  0.1128338913341991  0.24098232959107857  1.0000
  O   O2        1.0  0.2838206250058548  0.06274191002091023  0.1403933690564856  1.0000
  O   O3        1.0  0.8863306506034518  0.2390999255140846  0.5081094349149547  1.0000
  O   O4        1.0  0.546892026412482  0.8259689492928198  0.6948720877669691  1.0000
  O   O5        1.0  0.10021032053391064  0.8979646374916059  0.8503184196417546  1.0000
  O   O6        1.0  0.6210581285582848  0.37825442462875386  0.8504315959263904  1.0000
