data_image332
_chemical_formula_structural       OTiOBa
_chemical_formula_sum              "O2 Ti1 Ba1"
_cell_length_a       3.316233559920028
_cell_length_b       3.317252808681175
_cell_length_c       6.285289764404297
_cell_angle_alpha    74.74627740218766
_cell_angle_beta     74.71987753289004
_cell_angle_gamma    60.01125934712402

_space_group_name_H-M_alt    "P 1"
_space_group_IT_number       1

loop_
  _space_group_symop_operation_xyz
  'x, y, z'

loop_
  _atom_site_type_symbol
  _atom_site_label
  _atom_site_symmetry_multiplicity
  _atom_site_fract_x
  _atom_site_fract_y
  _atom_site_fract_z
  _atom_site_occupancy
  O   O1        1.0  0.03729325259291067  0.6296592761060498  0.7261364728006718  1.0000
  Ti  Ti1       1.0  0.31560766731393125  0.9075177910208121  0.8920657543795143  1.0000
  O   O2        1.0  0.5934357388486657  0.18562125424978904  0.058043783691273845  1.0000
  Ba  Ba1       1.0  0.81553098340511  0.40754048308812535  0.39209970299866137  1.0000
