data_image7
_chemical_formula_structural       BaOTiO2TiOBaO2
_chemical_formula_sum              "Ba2 O6 Ti2"
_cell_length_a       5.708929833459611
_cell_length_b       5.711139302515169
_cell_length_c       5.712314605712891
_cell_angle_alpha    60.060920651128995
_cell_angle_beta     60.05353102410579
_cell_angle_gamma    60.02555284965829

_space_group_name_H-M_alt    "P 1"
_space_group_IT_number       1

loop_
  _space_group_symop_operation_xyz
  'x, y, z'

loop_
  _atom_site_type_symbol
  _atom_site_label
  _atom_site_symmetry_multiplicity
  _atom_site_fract_x
  _atom_site_fract_y
  _atom_site_fract_z
  _atom_site_occupancy
  Ba  Ba1       1.0  0.9700126406306904  0.8006553535572359  0.9147657807367888  1.0000
  O   O1        1.0  0.4698061593367944  0.30075294591069657  0.9147825488180075  1.0000
  Ti  Ti1       1.0  0.7199186944701294  0.5507668819495065  0.6647532196366589  1.0000
  O   O2        1.0  0.9698474088774631  0.3006010891026751  0.9150489552501926  1.0000
  O   O3        1.0  0.96964025491603  0.30072630602533496  0.41490173637438216  1.0000
  Ti  Ti2       1.0  0.21989506543519782  0.050684892339825885  0.16480424032660207  1.0000
  O   O4        1.0  0.9696913901146251  0.8007237339256168  0.41486731699374074  1.0000
  Ba  Ba2       1.0  0.46975412579988207  0.3006629575902564  0.4148001396691533  1.0000
  O   O5        1.0  0.46990386439606036  0.8007296920927486  0.9147979001206104  1.0000
  O   O6        1.0  0.4697535247520892  0.8006811164919395  0.41469509544152994  1.0000
