data_image170
_chemical_formula_structural       OBaTiBaOTiO4
_chemical_formula_sum              "O6 Ba2 Ti2"
_cell_length_a       5.622895908724735
_cell_length_b       4.422195716616707
_cell_length_c       5.621296405792236
_cell_angle_alpha    89.9175962706959
_cell_angle_beta     89.91362110684888
_cell_angle_gamma    89.88404639122854

_space_group_name_H-M_alt    "P 1"
_space_group_IT_number       1

loop_
  _space_group_symop_operation_xyz
  'x, y, z'

loop_
  _atom_site_type_symbol
  _atom_site_label
  _atom_site_symmetry_multiplicity
  _atom_site_fract_x
  _atom_site_fract_y
  _atom_site_fract_z
  _atom_site_occupancy
  O   O1        1.0  0.4484898046697811  0.47698482183128604  0.08008006788146428  1.0000
  Ba  Ba1       1.0  0.6985326765081362  0.024247006053788635  0.8306455778320466  1.0000
  Ti  Ti1       1.0  0.6984947561318963  0.5382350764827716  0.3307948436252319  1.0000
  Ba  Ba2       1.0  0.19860027795530497  0.024200890201293308  0.3302322489570402  1.0000
  O   O2        1.0  0.948492562933627  0.47653877276747114  0.08017615270522  1.0000
  Ti  Ti2       1.0  0.19846037872990305  0.5383235423103857  0.8306346270819254  1.0000
  O   O3        1.0  0.4482205403762604  0.47687656405887907  0.5799458238115549  1.0000
  O   O4        1.0  0.948227529707687  0.47733451330566135  0.5803383041945397  1.0000
  O   O5        1.0  0.1982579956812985  0.9453742306656121  0.8302867264779671  1.0000
  O   O6        1.0  0.6983445598897321  0.9453001193076813  0.33026043779903697  1.0000
