data_image184
_chemical_formula_structural       BaOTiO2
_chemical_formula_sum              "Ba1 O3 Ti1"
_cell_length_a       4.104309373406819
_cell_length_b       4.097878704102816
_cell_length_c       4.09249496459961
_cell_angle_alpha    90.01993299791486
_cell_angle_beta     89.51167819840754
_cell_angle_gamma    90.05518360011872

_space_group_name_H-M_alt    "P 1"
_space_group_IT_number       1

loop_
  _space_group_symop_operation_xyz
  'x, y, z'

loop_
  _atom_site_type_symbol
  _atom_site_label
  _atom_site_symmetry_multiplicity
  _atom_site_fract_x
  _atom_site_fract_y
  _atom_site_fract_z
  _atom_site_occupancy
  Ba  Ba1       1.0  0.7374823838592605  0.8376396429847852  0.041462600072991004  1.0000
  O   O1        1.0  0.2209398581901629  0.8675318971038661  0.5252696000294552  1.0000
  Ti  Ti1       1.0  0.2540323171649853  0.32170956453218164  0.5571191944401878  1.0000
  O   O2        1.0  0.707007130481271  0.35367049310516635  0.5250425507090953  1.0000
  O   O3        1.0  0.22112547609390204  0.3536414882819501  0.012062478024497973  1.0000
