data_image25
_chemical_formula_structural       OTiO2BaOBa2TiOBa3O4TiO
_chemical_formula_sum              "O10 Ti3 Ba6"
_cell_length_a       6.588515928931647
_cell_length_b       6.329506631159885
_cell_length_c       10.554346084594727
_cell_angle_alpha    87.51114321586707
_cell_angle_beta     71.47549724266645
_cell_angle_gamma    70.67685719227845

_space_group_name_H-M_alt    "P 1"
_space_group_IT_number       1

loop_
  _space_group_symop_operation_xyz
  'x, y, z'

loop_
  _atom_site_type_symbol
  _atom_site_label
  _atom_site_symmetry_multiplicity
  _atom_site_fract_x
  _atom_site_fract_y
  _atom_site_fract_z
  _atom_site_occupancy
  O   O1        1.0  0.7083788835816783  0.7359494853716915  0.2587920529384451  1.0000
  Ti  Ti1       1.0  0.7452957234543417  0.4592649684673725  0.33813430980561565  1.0000
  O   O2        1.0  0.5939178848653168  0.2750229537637072  0.8348404540538584  1.0000
  O   O3        1.0  0.14360944657987712  0.8414063882893114  0.4859731776581194  1.0000
  Ba  Ba1       1.0  0.3129201625341039  0.0722474062973606  0.2573835008631163  1.0000
  O   O4        1.0  0.7527710291096995  0.38433439298652555  0.5094130461914078  1.0000
  Ba  Ba2       1.0  0.01088036253164301  0.18737699986582365  0.6628926568313896  1.0000
  Ba  Ba3       1.0  0.7058931530943752  0.973407772236422  0.47493685811947656  1.0000
  Ti  Ti2       1.0  0.2703952286097443  0.5617977266544676  0.39104563409562987  1.0000
  O   O5        1.0  0.3052573351804676  0.3027432063953577  0.4817144405643994  1.0000
  Ba  Ba4       1.0  0.03852118446900378  0.8061111704546502  0.08395055870940195  1.0000
  Ba  Ba5       1.0  0.677739480613166  0.4827459395640292  0.022906231151779657  1.0000
  Ba  Ba6       1.0  0.3640815462145081  0.5737926194776972  0.6912128399135952  1.0000
  O   O6        1.0  0.11954574740182987  0.3480400830606662  0.8871507892885042  1.0000
  O   O7        1.0  0.40796404021758403  0.9240015467638728  0.003764711036680384  1.0000
  O   O8        1.0  0.4250143007086401  0.9585610792874205  0.7146713306245841  1.0000
  O   O9        1.0  0.8745260278972611  0.1950988634075851  0.2296482060062358  1.0000
  Ti  Ti3       1.0  0.3925722433784524  0.11693016486240897  0.8671920772869554  1.0000
  O   O10       1.0  0.28502472183867006  0.5430309231970282  0.2136401416072481  1.0000
