data_image880
_chemical_formula_structural       Ti2OBaTiOBaO2TiO6
_chemical_formula_sum              "Ti4 O10 Ba2"
_cell_length_a       3.8195495950563325
_cell_length_b       5.767822918219569
_cell_length_c       11.61467456817627
_cell_angle_alpha    89.96414401398852
_cell_angle_beta     89.9922980513036
_cell_angle_gamma    89.97240171067355

_space_group_name_H-M_alt    "P 1"
_space_group_IT_number       1

loop_
  _space_group_symop_operation_xyz
  'x, y, z'

loop_
  _atom_site_type_symbol
  _atom_site_label
  _atom_site_symmetry_multiplicity
  _atom_site_fract_x
  _atom_site_fract_y
  _atom_site_fract_z
  _atom_site_occupancy
  Ti  Ti1       1.0  0.6622345197179329  0.790419773944346  0.5379208072807878  1.0000
  Ti  Ti2       1.0  0.6621267864287179  0.29046000203419914  0.5822923461149544  1.0000
  O   O1        1.0  0.6621275970377328  0.5417071162609662  0.4438673969827019  1.0000
  Ba  Ba1       1.0  0.1622524598437028  0.28983931871490626  0.32015550872605125  1.0000
  Ti  Ti3       1.0  0.662410130858115  0.2889522470324702  0.03795318808048687  1.0000
  O   O2        1.0  0.16251440854844257  0.7900525780123736  0.05932332521142841  1.0000
  Ba  Ba2       1.0  0.16229582925149702  0.7895546364142587  0.820181283107908  1.0000
  O   O3        1.0  0.6625300057575252  0.03715347241735836  0.4431403698207277  1.0000
  O   O4        1.0  0.662465071298338  0.5122703224265945  0.1692499848051605  1.0000
  Ti  Ti4       1.0  0.6616296026286683  0.788924575857425  0.08229742262875792  1.0000
  O   O5        1.0  0.6621828986246366  0.06719333722326301  0.16880642223959044  1.0000
  O   O6        1.0  0.6622917232386727  0.04237875749685211  0.9431937908491377  1.0000
  O   O7        1.0  0.1623443671856597  0.2891167460991783  0.5595183603927175  1.0000
  O   O8        1.0  0.6625855800776652  0.5376225967384743  0.943815604027782  1.0000
  O   O9        1.0  0.6623644344184673  0.011613129281218345  0.6687493517686545  1.0000
  O   O10       1.0  0.6622436370764052  0.5668183922870981  0.669190202150494  1.0000
