data_image247
_chemical_formula_structural       TiO3TiOBaO2Ba
_chemical_formula_sum              "Ti2 O6 Ba2"
_cell_length_a       5.128895833571577
_cell_length_b       5.88842013311233
_cell_length_c       5.893596649169923
_cell_angle_alpha    120.18519738909916
_cell_angle_beta     90.12635416649931
_cell_angle_gamma    90.05801813898763

_space_group_name_H-M_alt    "P 1"
_space_group_IT_number       1

loop_
  _space_group_symop_operation_xyz
  'x, y, z'

loop_
  _atom_site_type_symbol
  _atom_site_label
  _atom_site_symmetry_multiplicity
  _atom_site_fract_x
  _atom_site_fract_y
  _atom_site_fract_z
  _atom_site_occupancy
  Ti  Ti1       1.0  0.790728052943686  0.2984336758229473  0.36111353975644245  1.0000
  O   O1        1.0  0.009812833815890763  0.4299106767107824  0.18216787531575537  1.0000
  O   O2        1.0  0.9981672545094762  0.4415488622693064  0.6456703667543993  1.0000
  O   O3        1.0  0.5105838129650667  0.56564767689895  0.4519746887304909  1.0000
  Ti  Ti2       1.0  0.2903923193607195  0.25426219298981584  0.27340578576505375  1.0000
  O   O4        1.0  0.009165730609905817  0.9870941615771285  0.18260823057329878  1.0000
  Ba  Ba1       1.0  0.08071550176663773  0.9368937003713906  0.6374200219450065  1.0000
  O   O5        1.0  0.5100887255061797  0.12276770665869528  0.45239480085175676  1.0000
  O   O6        1.0  0.49636455350966974  0.11121384087708899  0.9889868667900313  1.0000
  Ba  Ba2       1.0  0.5806856363683144  0.6152282158593411  0.9958943837673391  1.0000
