data_image165
_chemical_formula_structural       OTiO
_chemical_formula_sum              "O2 Ti1"
_cell_length_a       2.9983042268780213
_cell_length_b       2.9994034873426307
_cell_length_c       5.773193359375
_cell_angle_alpha    75.43152260336063
_cell_angle_beta     75.36502308253746
_cell_angle_gamma    59.97105497187036

_space_group_name_H-M_alt    "P 1"
_space_group_IT_number       1

loop_
  _space_group_symop_operation_xyz
  'x, y, z'

loop_
  _atom_site_type_symbol
  _atom_site_label
  _atom_site_symmetry_multiplicity
  _atom_site_fract_x
  _atom_site_fract_y
  _atom_site_fract_z
  _atom_site_occupancy
  O   O1        1.0  0.39074316609695736  0.25429120506952374  0.8585354162792486  1.0000
  Ti  Ti1       1.0  0.7812561959670238  0.6439057988142816  0.6836194860526255  1.0000
  O   O2        1.0  0.1712334963063204  0.033236676152001605  0.5085710340215354  1.0000
