data_image402
_chemical_formula_structural       BaOBaO3TiOTiO2BaO2Ti
_chemical_formula_sum              "Ba3 O9 Ti3"
_cell_length_a       3.9631316161724928
_cell_length_b       3.961167841070888
_cell_length_c       13.92244243621826
_cell_angle_alpha    89.92018490997557
_cell_angle_beta     89.98233280538452
_cell_angle_gamma    89.93873571006239

_space_group_name_H-M_alt    "P 1"
_space_group_IT_number       1

loop_
  _space_group_symop_operation_xyz
  'x, y, z'

loop_
  _atom_site_type_symbol
  _atom_site_label
  _atom_site_symmetry_multiplicity
  _atom_site_fract_x
  _atom_site_fract_y
  _atom_site_fract_z
  _atom_site_occupancy
  Ba  Ba1       1.0  0.9017914603038759  0.3659926160880687  0.4371357989117344  1.0000
  O   O1        1.0  0.3919572020567416  0.8724004164997669  0.14151732783470666  1.0000
  Ba  Ba2       1.0  0.8807116687596027  0.3685484717900523  0.14356331864330496  1.0000
  O   O2        1.0  0.936799672063195  0.8844194240511585  0.5788844460867633  1.0000
  O   O3        1.0  0.4084134544199027  0.8722536046826167  0.4336282005377091  1.0000
  O   O4        1.0  0.9023521410934882  0.8744585576634494  0.2840118158476169  1.0000
  Ti  Ti1       1.0  0.3815793338035218  0.8614447228469028  0.28146852902520975  1.0000
  O   O5        1.0  0.7948446435068703  0.8928491111799669  0.7946186147295491  1.0000
  Ti  Ti2       1.0  0.3934028481109709  0.8517565922634758  0.5707184369385102  1.0000
  O   O6        1.0  0.816278193717442  0.3762974244892665  0.9384465863003818  1.0000
  O   O7        1.0  0.4005589940996356  0.37585074185582196  0.2840336544252513  1.0000
  Ba  Ba3       1.0  0.3257926097676175  0.8710667470058298  0.9292581795857833  1.0000
  O   O8        1.0  0.43558372523593725  0.38940225989505195  0.5798497692118318  1.0000
  O   O9        1.0  0.2928958022654453  0.38857703914801833  0.796011803416031  1.0000
  Ti  Ti3       1.0  0.8319213762084764  0.3603549623368308  0.80208717244726  1.0000
