data_image333
_chemical_formula_structural       OTiOBa2OTiOTiO2BaTiO2
_chemical_formula_sum              "O8 Ti4 Ba3"
_cell_length_a       3.771880775361317
_cell_length_b       6.096486067044998
_cell_length_c       11.629095077514648
_cell_angle_alpha    91.29051211962424
_cell_angle_beta     89.96122068833199
_cell_angle_gamma    89.95081148106982

_space_group_name_H-M_alt    "P 1"
_space_group_IT_number       1

loop_
  _space_group_symop_operation_xyz
  'x, y, z'

loop_
  _atom_site_type_symbol
  _atom_site_label
  _atom_site_symmetry_multiplicity
  _atom_site_fract_x
  _atom_site_fract_y
  _atom_site_fract_z
  _atom_site_occupancy
  O   O1        1.0  0.9425858409534712  0.23506742728276067  0.2644677934393773  1.0000
  Ti  Ti1       1.0  0.9428800193334186  0.4412070905374635  0.1451155721250206  1.0000
  O   O2        1.0  0.9430523981632656  0.21426145539049266  0.01128422406514284  1.0000
  Ba  Ba1       1.0  0.4427706771834949  0.9501778620760817  0.33311321742073174  1.0000
  Ba  Ba2       1.0  0.4431316462317366  0.9296174299974723  0.9199083474181936  1.0000
  O   O3        1.0  0.9431488888351285  0.224833876675714  0.5085747736625683  1.0000
  Ti  Ti2       1.0  0.9431479577435593  0.4340808115244114  0.9059304505344445  1.0000
  O   O4        1.0  0.9429694788616872  0.6600497794586331  0.012455717470899012  1.0000
  Ti  Ti3       1.0  0.9428348564231582  0.9607415442930587  0.6055581580150068  1.0000
  O   O5        1.0  0.44330445134335356  0.4249550934456832  0.8598952253498174  1.0000
  O   O6        1.0  0.9431181884515792  0.6610774297937547  0.26182294549296564  1.0000
  Ba  Ba3       1.0  0.4428464542836934  0.49014061600757103  0.6384259515890534  1.0000
  Ti  Ti4       1.0  0.9429836326101705  0.4548775828283203  0.39203517612737987  1.0000
  O   O7        1.0  0.943106355203036  0.8116245012819994  0.743595250011166  1.0000
  O   O8        1.0  0.9428424651805227  0.7186596373757244  0.5006336306982294  1.0000
