data_image218
_chemical_formula_structural       BaOTiO3
_chemical_formula_sum              "Ba1 O4 Ti1"
_cell_length_a       4.174128776122513
_cell_length_b       4.160919230790469
_cell_length_c       4.875705242156982
_cell_angle_alpha    95.9880976439128
_cell_angle_beta     95.92884585162221
_cell_angle_gamma    83.97794144839631

_space_group_name_H-M_alt    "P 1"
_space_group_IT_number       1

loop_
  _space_group_symop_operation_xyz
  'x, y, z'

loop_
  _atom_site_type_symbol
  _atom_site_label
  _atom_site_symmetry_multiplicity
  _atom_site_fract_x
  _atom_site_fract_y
  _atom_site_fract_z
  _atom_site_occupancy
  Ba  Ba1       1.0  0.1495177783039187  0.197520523588185  0.20009366577287463  1.0000
  O   O1        1.0  0.6446686281972609  0.1822689798411641  0.6386332189034056  1.0000
  Ti  Ti1       1.0  0.7023205751007501  0.7499661247533851  0.6535344401299671  1.0000
  O   O2        1.0  0.7087696376364101  0.7931700025180929  0.06348527720215556  1.0000
  O   O3        1.0  0.13110698291833672  0.6936224059078441  0.6430098304550269  1.0000
  O   O4        1.0  0.5749233265164007  0.6049987699084381  0.2501004315230896  1.0000
