data_image492
_chemical_formula_structural       Ba2TiO2TiO3
_chemical_formula_sum              "Ba2 Ti2 O5"
_cell_length_a       3.579710311503751
_cell_length_b       6.383656600451729
_cell_length_c       6.548718452453613
_cell_angle_alpha    108.03054689290865
_cell_angle_beta     90.01103326037799
_cell_angle_gamma    106.43739186818785

_space_group_name_H-M_alt    "P 1"
_space_group_IT_number       1

loop_
  _space_group_symop_operation_xyz
  'x, y, z'

loop_
  _atom_site_type_symbol
  _atom_site_label
  _atom_site_symmetry_multiplicity
  _atom_site_fract_x
  _atom_site_fract_y
  _atom_site_fract_z
  _atom_site_occupancy
  Ba  Ba1       1.0  0.5846300672081295  0.942814884023991  0.7210488894176951  1.0000
  Ba  Ba2       1.0  0.2396648494583494  0.2590524525833341  0.2934301076968691  1.0000
  Ti  Ti1       1.0  0.860874442378967  0.500042950539154  0.7921733782691466  1.0000
  O   O1        1.0  0.9121559673809088  0.6009553236634287  0.5072738034963264  1.0000
  O   O2        1.0  0.025875764688297817  0.8268016240660555  0.9620802231107884  1.0000
  Ti  Ti2       1.0  0.9633836930790595  0.7019065400436761  0.2223879467847072  1.0000
  O   O3        1.0  0.5313322150832456  0.8367846092489986  0.2955915926621027  1.0000
  O   O4        1.0  0.7984496975016779  0.37516968402510237  0.05248991877970731  1.0000
  O   O5        1.0  0.2929156204062641  0.3651212766668116  0.7189499272771134  1.0000
