data_image243
_chemical_formula_structural       BaOBaTiO2TiO2
_chemical_formula_sum              "Ba2 O5 Ti2"
_cell_length_a       4.082549021956384
_cell_length_b       5.96401024766259
_cell_length_c       6.439390182495116
_cell_angle_alpha    106.2409140147289
_cell_angle_beta     90.04672099791783
_cell_angle_gamma    109.98764381636664

_space_group_name_H-M_alt    "P 1"
_space_group_IT_number       1

loop_
  _space_group_symop_operation_xyz
  'x, y, z'

loop_
  _atom_site_type_symbol
  _atom_site_label
  _atom_site_symmetry_multiplicity
  _atom_site_fract_x
  _atom_site_fract_y
  _atom_site_fract_z
  _atom_site_occupancy
  Ba  Ba1       1.0  0.6558424447761954  0.7071312696700237  0.07442951086945013  1.0000
  O   O1        1.0  0.05751767051823691  0.5103467682080484  0.7468428466278433  1.0000
  Ba  Ba2       1.0  0.45924116949457183  0.31352244850752997  0.4191137775642189  1.0000
  Ti  Ti1       1.0  0.2153953518685837  0.8263527770460639  0.6541962443560021  1.0000
  O   O2        1.0  0.9069031387313764  0.20873699437727278  0.13095805471675004  1.0000
  O   O3        1.0  0.7149513975896113  0.8253977799977963  0.6888049000482561  1.0000
  Ti  Ti2       1.0  0.8996228407240748  0.1942784570159753  0.8393430935027415  1.0000
  O   O4        1.0  0.20822764057106197  0.8120158475695191  0.3625637372213528  1.0000
  O   O5        1.0  0.4000926267644167  0.19526870178134295  0.8047124197023671  1.0000
