data_image936
_chemical_formula_structural       BaOTiO3
_chemical_formula_sum              "Ba1 O4 Ti1"
_cell_length_a       3.8973828505696697
_cell_length_b       3.905135203949421
_cell_length_c       5.5015387535095215
_cell_angle_alpha    89.87624630965144
_cell_angle_beta     89.85620653188323
_cell_angle_gamma    89.9582632184436

_space_group_name_H-M_alt    "P 1"
_space_group_IT_number       1

loop_
  _space_group_symop_operation_xyz
  'x, y, z'

loop_
  _atom_site_type_symbol
  _atom_site_label
  _atom_site_symmetry_multiplicity
  _atom_site_fract_x
  _atom_site_fract_y
  _atom_site_fract_z
  _atom_site_occupancy
  Ba  Ba1       1.0  0.6785195333344543  0.11119811652801657  0.5473054631558911  1.0000
  O   O1        1.0  0.21992123779588424  0.12684537726231082  0.18324177443641176  1.0000
  Ti  Ti1       1.0  0.2058476715075878  0.5881596307463295  0.1359375232669139  1.0000
  O   O2        1.0  0.35635307056878646  0.6169223708426533  0.7971915008565645  1.0000
  O   O3        1.0  0.1409638157627568  0.6114237564857279  0.5776443697912333  1.0000
  O   O4        1.0  0.7297856765697625  0.6232954833699019  0.18898793437407893  1.0000
