data_image122
_chemical_formula_structural       BaTi2BaO6
_chemical_formula_sum              "Ba2 Ti2 O6"
_cell_length_a       5.431038703917387
_cell_length_b       5.434200416811219
_cell_length_c       6.465610027313232
_cell_angle_alpha    65.22653033023005
_cell_angle_beta     65.20643423379248
_cell_angle_gamma    60.04877041439853

_space_group_name_H-M_alt    "P 1"
_space_group_IT_number       1

loop_
  _space_group_symop_operation_xyz
  'x, y, z'

loop_
  _atom_site_type_symbol
  _atom_site_label
  _atom_site_symmetry_multiplicity
  _atom_site_fract_x
  _atom_site_fract_y
  _atom_site_fract_z
  _atom_site_occupancy
  Ba  Ba1       1.0  0.9978381356034396  0.08328313669685941  0.9182837031075437  1.0000
  Ti  Ti1       1.0  0.46015559734317646  0.5459046770501358  0.5308945908066482  1.0000
  Ti  Ti2       1.0  0.7774156558299246  0.8630789847179137  0.5793269133314871  1.0000
  Ba  Ba2       1.0  0.23975680656026202  0.3255242070003647  0.19207821095106667  1.0000
  O   O1        1.0  0.6935757047319517  0.7799767541058972  0.3387147524414188  1.0000
  O   O2        1.0  0.5441933285775133  0.13861557249336554  0.7714432394076411  1.0000
  O   O3        1.0  0.5436655448647392  0.6293364060532187  0.7714346990860218  1.0000
  O   O4        1.0  0.18438864747929892  0.7797261762488714  0.3387862696791495  1.0000
  O   O5        1.0  0.6937058323016331  0.27041118758976557  0.3387829324080046  1.0000
  O   O6        1.0  0.05317378253564148  0.6288895538953879  0.7714497030600376  1.0000
