data_image853
_chemical_formula_structural       BaOTiO
_chemical_formula_sum              "Ba1 O2 Ti1"
_cell_length_a       3.290486767418819
_cell_length_b       3.286134245188579
_cell_length_c       6.52780818939209
_cell_angle_alpha    75.34776388016476
_cell_angle_beta     75.3459405407832
_cell_angle_gamma    59.93963329601285

_space_group_name_H-M_alt    "P 1"
_space_group_IT_number       1

loop_
  _space_group_symop_operation_xyz
  'x, y, z'

loop_
  _atom_site_type_symbol
  _atom_site_label
  _atom_site_symmetry_multiplicity
  _atom_site_fract_x
  _atom_site_fract_y
  _atom_site_fract_z
  _atom_site_occupancy
  Ba  Ba1       1.0  0.5991603026349392  0.6340092802086983  0.47816963033087556  1.0000
  O   O1        1.0  0.1563235741669656  0.19172455924768622  0.8065440178818588  1.0000
  Ti  Ti1       1.0  0.7690944376507538  0.8046991595826428  0.9678585536252016  1.0000
  O   O2        1.0  0.3805255305595948  0.4162105835091453  0.13332519748310742  1.0000
