data_image1024
_chemical_formula_structural       OBaOBaTiOTiO
_chemical_formula_sum              "O4 Ba2 Ti2"
_cell_length_a       3.808241410051855
_cell_length_b       3.816402479968639
_cell_length_c       10.909210205078125
_cell_angle_alpha    90.04612677184863
_cell_angle_beta     90.00858122254411
_cell_angle_gamma    90.02765110898552

_space_group_name_H-M_alt    "P 1"
_space_group_IT_number       1

loop_
  _space_group_symop_operation_xyz
  'x, y, z'

loop_
  _atom_site_type_symbol
  _atom_site_label
  _atom_site_symmetry_multiplicity
  _atom_site_fract_x
  _atom_site_fract_y
  _atom_site_fract_z
  _atom_site_occupancy
  O   O1        1.0  0.4358309213434682  0.7148361889997311  0.9310708709114403  1.0000
  Ba  Ba1       1.0  0.436642468816317  0.7157611262784543  0.47149534631217865  1.0000
  O   O2        1.0  0.936600404478586  0.215488177334012  0.4050987281181511  1.0000
  Ba  Ba2       1.0  0.9354985831536513  0.2144505706472115  0.8649777590385377  1.0000
  Ti  Ti1       1.0  0.43598267630320564  0.7150583182069  0.10359625887458906  1.0000
  O   O3        1.0  0.43629908681086516  0.21520930069757477  0.1674199784767178  1.0000
  Ti  Ti2       1.0  0.9363266918004381  0.21513495663416138  0.2326432978771906  1.0000
  O   O4        1.0  0.9360200741752441  0.7149854875762401  0.16825385249344835  1.0000
