data_image367
_chemical_formula_structural       BaTi2O2BaO4
_chemical_formula_sum              "Ba2 Ti2 O6"
_cell_length_a       5.657021347097155
_cell_length_b       5.654294322595564
_cell_length_c       5.888307571411133
_cell_angle_alpha    118.50354717192872
_cell_angle_beta     118.59509994201052
_cell_angle_gamma    89.89001721017742

_space_group_name_H-M_alt    "P 1"
_space_group_IT_number       1

loop_
  _space_group_symop_operation_xyz
  'x, y, z'

loop_
  _atom_site_type_symbol
  _atom_site_label
  _atom_site_symmetry_multiplicity
  _atom_site_fract_x
  _atom_site_fract_y
  _atom_site_fract_z
  _atom_site_occupancy
  Ba  Ba1       1.0  0.09202187280785505  0.19927134249000755  0.8824627351130869  1.0000
  Ti  Ti1       1.0  0.3510193675310847  0.9586133258470743  0.4004118259080619  1.0000
  Ti  Ti2       1.0  0.8508078527027743  0.4583772661479631  0.40004218026962635  1.0000
  O   O1        1.0  0.5732969565199082  0.18044912810672553  0.3448891279831524  1.0000
  O   O2        1.0  0.05841314181210934  0.6654317590584196  0.8158541142386585  1.0000
  Ba  Ba2       1.0  0.592093264839454  0.6995669622678887  0.8827511997760704  1.0000
  O   O3        1.0  0.5732656432701768  0.6804569403653127  0.3449860658162879  1.0000
  O   O4        1.0  0.07371139258785968  0.6810233139472123  0.34559775194581166  1.0000
  O   O5        1.0  0.5589193390948642  0.16614502010334942  0.8163569355273411  1.0000
  O   O6        1.0  0.07325945493960624  0.18035746217125073  0.3447801320234953  1.0000
