data_image6
_chemical_formula_structural       Ba2O3Ti
_chemical_formula_sum              "Ba2 O3 Ti1"
_cell_length_a       3.9756459289794686
_cell_length_b       3.9792513857657785
_cell_length_c       9.062653541564943
_cell_angle_alpha    102.78978485646977
_cell_angle_beta     102.71728193568892
_cell_angle_gamma    89.9473212858549

_space_group_name_H-M_alt    "P 1"
_space_group_IT_number       1

loop_
  _space_group_symop_operation_xyz
  'x, y, z'

loop_
  _atom_site_type_symbol
  _atom_site_label
  _atom_site_symmetry_multiplicity
  _atom_site_fract_x
  _atom_site_fract_y
  _atom_site_fract_z
  _atom_site_occupancy
  Ba  Ba1       1.0  0.871755051304283  0.18677511786569015  0.9210748000646445  1.0000
  Ba  Ba2       1.0  0.11149108566823346  0.4275326429978604  0.3993926985484882  1.0000
  O   O1        1.0  0.9858572286947233  0.8013836879394568  0.1487537726642297  1.0000
  O   O2        1.0  0.6076460512248167  0.9236798150138943  0.3916950235286224  1.0000
  O   O3        1.0  0.48602389739916546  0.30150006954773456  0.14904140160966078  1.0000
  Ti  Ti1       1.0  0.4960979992899421  0.8116482087313678  0.16917937853492124  1.0000
