data_image297
_chemical_formula_structural       TiBa2O5TiOBaO
_chemical_formula_sum              "Ti2 Ba3 O7"
_cell_length_a       4.070859767651222
_cell_length_b       4.081898341374872
_cell_length_c       11.097229957580566
_cell_angle_alpha    100.5281781680741
_cell_angle_beta     100.45117603377633
_cell_angle_gamma    90.12071268744593

_space_group_name_H-M_alt    "P 1"
_space_group_IT_number       1

loop_
  _space_group_symop_operation_xyz
  'x, y, z'

loop_
  _atom_site_type_symbol
  _atom_site_label
  _atom_site_symmetry_multiplicity
  _atom_site_fract_x
  _atom_site_fract_y
  _atom_site_fract_z
  _atom_site_occupancy
  Ti  Ti1       1.0  0.38749114118505074  0.264743394688533  0.2528747503283972  1.0000
  Ba  Ba1       1.0  0.5962732373256291  0.502805075505772  0.6973655456451687  1.0000
  Ba  Ba2       1.0  0.7799279209048042  0.6842776483617928  0.06340145153735793  1.0000
  O   O1        1.0  0.08005389860968538  0.014699271820067734  0.6913365678381559  1.0000
  O   O2        1.0  0.6631201820581195  0.10293247980939946  0.8745580174099973  1.0000
  O   O3        1.0  0.1740805460595625  0.6149461309163271  0.8745375609605153  1.0000
  O   O4        1.0  0.8512384108251685  0.2910276828245859  0.252069825131253  1.0000
  O   O5        1.0  0.2636282703233953  0.20187210212753612  0.06328545508085494  1.0000
  Ti  Ti2       1.0  0.19852819823356957  0.07602167276224783  0.8738049931782769  1.0000
  O   O6        1.0  0.3625288477929664  0.8028468661418485  0.252130280818051  1.0000
  Ba  Ba3       1.0  0.961347484539277  0.8676574693910296  0.4292537767519378  1.0000
  O   O7        1.0  0.4505588004570492  0.3853892569369525  0.4352747693309144  1.0000
