data_image774
_chemical_formula_structural       BaTiO2
_chemical_formula_sum              "Ba1 Ti1 O2"
_cell_length_a       3.291408344357508
_cell_length_b       3.2910359262777447
_cell_length_c       6.312876224517822
_cell_angle_alpha    74.93633985970838
_cell_angle_beta     74.9368930570472
_cell_angle_gamma    60.118501971709776

_space_group_name_H-M_alt    "P 1"
_space_group_IT_number       1

loop_
  _space_group_symop_operation_xyz
  'x, y, z'

loop_
  _atom_site_type_symbol
  _atom_site_label
  _atom_site_symmetry_multiplicity
  _atom_site_fract_x
  _atom_site_fract_y
  _atom_site_fract_z
  _atom_site_occupancy
  Ba  Ba1       1.0  0.06551696176757696  0.010183377122987227  0.707248430113527  1.0000
  Ti  Ti1       1.0  0.5657931628302628  0.5100735145736038  0.20692742885163384  1.0000
  O   O1        1.0  0.287531138591039  0.23192400601915053  0.04146635293977071  1.0000
  O   O2        1.0  0.8438156487683308  0.7881538781087051  0.37287938480374483  1.0000
