data_image1032
_chemical_formula_structural       BaO2BaOBaO2TiBaOTiO4
_chemical_formula_sum              "Ba4 O10 Ti2"
_cell_length_a       5.632172727024036
_cell_length_b       5.643598293081652
_cell_length_c       8.418079376220703
_cell_angle_alpha    108.41925823144328
_cell_angle_beta     89.36416656067496
_cell_angle_gamma    90.28203464923088

_space_group_name_H-M_alt    "P 1"
_space_group_IT_number       1

loop_
  _space_group_symop_operation_xyz
  'x, y, z'

loop_
  _atom_site_type_symbol
  _atom_site_label
  _atom_site_symmetry_multiplicity
  _atom_site_fract_x
  _atom_site_fract_y
  _atom_site_fract_z
  _atom_site_occupancy
  Ba  Ba1       1.0  0.8858372981311383  0.17077857035229035  0.8020154274590343  1.0000
  O   O1        1.0  0.37288981412299077  0.15548775966398926  0.8091953914645725  1.0000
  O   O2        1.0  0.9789390896767332  0.84036534750158  0.9585529764084458  1.0000
  Ba  Ba2       1.0  0.403360359925516  0.43606023204226346  0.27777835178163096  1.0000
  O   O3        1.0  0.9036204244982858  0.4382930028216781  0.2935431387917646  1.0000
  Ba  Ba3       1.0  0.38576946152888486  0.6706727013285569  0.8019243945279695  1.0000
  O   O4        1.0  0.14964042034650518  0.29868580509863596  0.5406731797082713  1.0000
  O   O5        1.0  0.14727782755134927  0.8031048320895557  0.5492887826296707  1.0000
  Ti  Ti1       1.0  0.401408300007142  0.061277423191398325  0.5235061465800332  1.0000
  Ba  Ba4       1.0  0.903296314458105  0.9361000498412185  0.2777570783626262  1.0000
  O   O6        1.0  0.47899814484879294  0.3406407549347428  0.9586359543058873  1.0000
  Ti  Ti2       1.0  0.9014392873896303  0.5613445951780027  0.5235189120592321  1.0000
  O   O7        1.0  0.8725071649099579  0.6556597185493178  0.8090983841815543  1.0000
  O   O8        1.0  0.6473197905408249  0.30294876631348727  0.5491026916038705  1.0000
  O   O9        1.0  0.6495871768550926  0.7985923696003079  0.5405395492044225  1.0000
  O   O10       1.0  0.40330563356990384  0.9381492661648612  0.29354558218242377  1.0000
