data_image336
_chemical_formula_structural       TiOBaTi2O2BaTiO5TiO2BaO2
_chemical_formula_sum              "Ti5 O12 Ba3"
_cell_length_a       5.7624797755746755
_cell_length_b       5.942235178906876
_cell_length_c       10.495636940002441
_cell_angle_alpha    95.88042648782938
_cell_angle_beta     90.16805932066752
_cell_angle_gamma    119.75159234196732

_space_group_name_H-M_alt    "P 1"
_space_group_IT_number       1

loop_
  _space_group_symop_operation_xyz
  'x, y, z'

loop_
  _atom_site_type_symbol
  _atom_site_label
  _atom_site_symmetry_multiplicity
  _atom_site_fract_x
  _atom_site_fract_y
  _atom_site_fract_z
  _atom_site_occupancy
  Ti  Ti1       1.0  0.35936566808990733  0.28928733463490997  0.6562965965760962  1.0000
  O   O1        1.0  0.6974646644056934  0.2700300808832928  0.024118277335615872  1.0000
  Ba  Ba1       1.0  0.21986527146629262  0.9527205468793062  0.2913085647036561  1.0000
  Ti  Ti2       1.0  0.7919576825870952  0.04904912258013172  0.08845895559494864  1.0000
  Ti  Ti3       1.0  0.5753855060417465  0.6690093602175408  0.3722500233434679  1.0000
  O   O2        1.0  0.8872522586015568  0.8571418324323846  0.5002931857617599  1.0000
  O   O3        1.0  0.01913029196458946  0.24264793177104677  0.6979246870206068  1.0000
  Ba  Ba2       1.0  0.07656596112202141  0.6690228331884251  0.8725594487294942  1.0000
  Ti  Ti4       1.0  0.6759019218238472  0.9095459546386698  0.6353755646894311  1.0000
  O   O4        1.0  0.41854327234884275  0.34834748788246944  0.48591798559581084  1.0000
  O   O5        1.0  0.4548057462488217  0.06897764456633203  0.7206265040250783  1.0000
  O   O6        1.0  0.13203082869652685  0.09515353246888475  0.04684142727725199  1.0000
  O   O7        1.0  0.4261669350196539  0.8322752834582895  0.4920011951752534  1.0000
  O   O8        1.0  0.2634893142272604  0.4807684141803934  0.24450527514087633  1.0000
  Ti  Ti5       1.0  0.47531626284483197  0.42860042156301975  0.10930102906384215  1.0000
  O   O9        1.0  0.6021541951773202  0.6324934773099712  0.732538313063754  1.0000
  O   O10       1.0  0.7324711468758743  0.9896128687589886  0.25888232575385944  1.0000
  Ba  Ba3       1.0  0.9310422108894486  0.3853252023340968  0.4534333716396993  1.0000
  O   O11       1.0  0.7246949775601939  0.5055302678115214  0.2528779897379739  1.0000
  O   O12       1.0  0.5480560781987824  0.7060372351218669  0.012368714685832756  1.0000
