data_image47
_chemical_formula_structural       OTiO3TiBaO
_chemical_formula_sum              "O5 Ti2 Ba1"
_cell_length_a       5.754952544647658
_cell_length_b       5.297886639669393
_cell_length_c       5.793025016784668
_cell_angle_alpha    117.10217150106105
_cell_angle_beta     119.67798952069359
_cell_angle_gamma    90.05058018221368

_space_group_name_H-M_alt    "P 1"
_space_group_IT_number       1

loop_
  _space_group_symop_operation_xyz
  'x, y, z'

loop_
  _atom_site_type_symbol
  _atom_site_label
  _atom_site_symmetry_multiplicity
  _atom_site_fract_x
  _atom_site_fract_y
  _atom_site_fract_z
  _atom_site_occupancy
  O   O1        1.0  0.1477044424677264  0.03836495137106472  0.995036190274544  1.0000
  Ti  Ti1       1.0  0.9834962643633826  0.6447520136729965  0.6652820805903353  1.0000
  O   O2        1.0  0.26200260482430743  0.4567599743817201  0.8085503610462356  1.0000
  O   O3        1.0  0.0953812709068766  0.6206569104998731  0.3942479700352537  1.0000
  O   O4        1.0  0.8484189504008071  0.4555136709931506  0.808013553749713  1.0000
  Ti  Ti2       1.0  0.2021354691704401  0.43261596304585764  0.10229763116042764  1.0000
  Ba  Ba1       1.0  0.7184873115292101  0.8827398026295308  0.13522731209002767  1.0000
  O   O5        1.0  0.6009703014047693  0.6190721154943652  0.39373895039383955  1.0000
