data_image254
_chemical_formula_structural       BaTiBaO2Ba3O3BaTiO
_chemical_formula_sum              "Ba6 Ti2 O6"
_cell_length_a       3.9487723857246286
_cell_length_b       9.799694146050202
_cell_length_c       10.615748405456543
_cell_angle_alpha    118.93431597186296
_cell_angle_beta     89.9820527672562
_cell_angle_gamma    90.00654582531541

_space_group_name_H-M_alt    "P 1"
_space_group_IT_number       1

loop_
  _space_group_symop_operation_xyz
  'x, y, z'

loop_
  _atom_site_type_symbol
  _atom_site_label
  _atom_site_symmetry_multiplicity
  _atom_site_fract_x
  _atom_site_fract_y
  _atom_site_fract_z
  _atom_site_occupancy
  Ba  Ba1       1.0  0.7720561027473078  0.33889600392197544  0.6706660623225379  1.0000
  Ti  Ti1       1.0  0.2722062274347624  0.14467350480176613  0.33406902540428585  1.0000
  Ba  Ba2       1.0  0.7723611196439529  0.8486785645179269  0.05420362750989988  1.0000
  O   O1        1.0  0.7723302334269156  0.3182843408800311  0.0751345119290273  1.0000
  O   O2        1.0  0.7722291905663798  0.14085697827840238  0.31812887221223246  1.0000
  Ba  Ba3       1.0  0.7720955145261581  0.9193705725042197  0.4343925372376302  1.0000
  Ba  Ba4       1.0  0.2721050237940442  0.6141861228219129  0.5409828373028103  1.0000
  Ba  Ba5       1.0  0.27235235438530836  0.5434084285290883  0.16053976412979196  1.0000
  O   O3        1.0  0.272224622697758  0.8784546705815671  0.2416565261232114  1.0000
  O   O4        1.0  0.27223418059452426  0.32214416909239074  0.27684863445461444  1.0000
  O   O5        1.0  0.7722325200022102  0.5841711731006725  0.35329789048424043  1.0000
  Ba  Ba6       1.0  0.27236350616531363  0.12380069505270383  0.9244831308965544  1.0000
  Ti  Ti2       1.0  0.7722215384746564  0.31850933438272294  0.2610892628348148  1.0000
  O   O6        1.0  0.2720796936352773  0.14456105551782977  0.5198233251697457  1.0000
