data_image167
_chemical_formula_structural       O2TiBaO
_chemical_formula_sum              "O3 Ti1 Ba1"
_cell_length_a       4.05821470499573
_cell_length_b       4.089407223495226
_cell_length_c       4.087890625
_cell_angle_alpha    89.89450340836571
_cell_angle_beta     89.90344411567638
_cell_angle_gamma    89.90320506227997

_space_group_name_H-M_alt    "P 1"
_space_group_IT_number       1

loop_
  _space_group_symop_operation_xyz
  'x, y, z'

loop_
  _atom_site_type_symbol
  _atom_site_label
  _atom_site_symmetry_multiplicity
  _atom_site_fract_x
  _atom_site_fract_y
  _atom_site_fract_z
  _atom_site_occupancy
  O   O1        1.0  0.43482658181348627  0.13009468424969176  0.762779722558  1.0000
  O   O2        1.0  0.9243177966723916  0.6420993075625788  0.7612780636382039  1.0000
  Ti  Ti1       1.0  0.8975519966236386  0.09756574662966067  0.7304082788587557  1.0000
  Ba  Ba1       1.0  0.41187635417773616  0.6129645837084481  0.24572378086259222  1.0000
  O   O3        1.0  0.9244029527258838  0.12854421479359576  0.2746347585940918  1.0000
