data_image151
_chemical_formula_structural       OTiO3BaTiOBaO
_chemical_formula_sum              "O6 Ti2 Ba2"
_cell_length_a       4.513279645602984
_cell_length_b       5.5898371081519755
_cell_length_c       5.592789173126221
_cell_angle_alpha    89.92872264881328
_cell_angle_beta     89.92818306441431
_cell_angle_gamma    89.96611110743221

_space_group_name_H-M_alt    "P 1"
_space_group_IT_number       1

loop_
  _space_group_symop_operation_xyz
  'x, y, z'

loop_
  _atom_site_type_symbol
  _atom_site_label
  _atom_site_symmetry_multiplicity
  _atom_site_fract_x
  _atom_site_fract_y
  _atom_site_fract_z
  _atom_site_occupancy
  O   O1        1.0  0.9794996688789402  0.9224078078791227  0.3224448906928793  1.0000
  Ti  Ti1       1.0  0.9124720303920079  0.6719275611360082  0.572135576071362  1.0000
  O   O2        1.0  0.9789470955312078  0.4223979124535582  0.3223880745959355  1.0000
  O   O3        1.0  0.9794191453320596  0.42231696225351156  0.8223334354012235  1.0000
  O   O4        1.0  0.5145386685524772  0.6722588159555668  0.5724146817036064  1.0000
  Ba  Ba1       1.0  0.4224858450067792  0.17211626565880994  0.5722347178690537  1.0000
  Ti  Ti2       1.0  0.9125037919803412  0.17190525194297301  0.07212678871478495  1.0000
  O   O5        1.0  0.5145754675951616  0.17217389453479867  0.0723831536057319  1.0000
  Ba  Ba2       1.0  0.4222281298258112  0.6720979977046374  0.07225131071112134  1.0000
  O   O6        1.0  0.9791033899167244  0.9223234600372957  0.8224501955370986  1.0000
