data_image91
_chemical_formula_structural       Ba3O5Ti2O3TiO2
_chemical_formula_sum              "Ba3 O10 Ti3"
_cell_length_a       3.9672757051060805
_cell_length_b       3.973791000736799
_cell_length_c       15.31321716308594
_cell_angle_alpha    97.48918197022141
_cell_angle_beta     97.45436170356349
_cell_angle_gamma    90.00186021549636

_space_group_name_H-M_alt    "P 1"
_space_group_IT_number       1

loop_
  _space_group_symop_operation_xyz
  'x, y, z'

loop_
  _atom_site_type_symbol
  _atom_site_label
  _atom_site_symmetry_multiplicity
  _atom_site_fract_x
  _atom_site_fract_y
  _atom_site_fract_z
  _atom_site_occupancy
  Ba  Ba1       1.0  0.22049109317190183  0.47630408141388886  0.4204364630299905  1.0000
  Ba  Ba2       1.0  0.6267375127752636  0.8755801999093754  0.22647543751155172  1.0000
  Ba  Ba3       1.0  0.4899039437317631  0.7373327421988901  0.9519192129550723  1.0000
  O   O1        1.0  0.2912085064332406  0.031188077558990123  0.5430745686421925  1.0000
  O   O2        1.0  0.42374245564083757  0.17112358331095173  0.8197017314025511  1.0000
  O   O3        1.0  0.7869440178489449  0.5253324775451998  0.5430800907900692  1.0000
  O   O4        1.0  0.06288463660053924  0.8111466579739341  0.0984821136462336  1.0000
  O   O5        1.0  0.9235740104641134  0.6710119169779061  0.8195650106139121  1.0000
  Ti  Ti1       1.0  0.06160974855167165  0.3098242128558776  0.09587019427214111  1.0000
  Ti  Ti2       1.0  0.9128197567738924  0.15731238008536624  0.7951447126180479  1.0000
  O   O6        1.0  0.7235637767378756  0.9674803923888883  0.4162550003928744  1.0000
  O   O7        1.0  0.5629916603351278  0.31123481539242165  0.09853936678922329  1.0000
  O   O8        1.0  0.9983858036000082  0.24603584314694915  0.9690921612625096  1.0000
  Ti  Ti3       1.0  0.7762347087182477  0.05105437566140354  0.5480093918481512  1.0000
  O   O9        1.0  0.12975117759581617  0.37832356268912665  0.23214934768501402  1.0000
  O   O10       1.0  0.8564927837370641  0.09730925137579477  0.6791338175390562  1.0000
