data_image305
_chemical_formula_structural       TiBaTiBaO2Ti2O8
_chemical_formula_sum              "Ti4 Ba2 O10"
_cell_length_a       3.8914663778344707
_cell_length_b       3.8507162932551307
_cell_length_c       15.51861572265625
_cell_angle_alpha    82.94785273906562
_cell_angle_beta     89.87475732442788
_cell_angle_gamma    89.97477178533526

_space_group_name_H-M_alt    "P 1"
_space_group_IT_number       1

loop_
  _space_group_symop_operation_xyz
  'x, y, z'

loop_
  _atom_site_type_symbol
  _atom_site_label
  _atom_site_symmetry_multiplicity
  _atom_site_fract_x
  _atom_site_fract_y
  _atom_site_fract_z
  _atom_site_occupancy
  Ti  Ti1       1.0  0.5942605102830147  0.29834564206137715  0.7492923536081303  1.0000
  Ba  Ba1       1.0  0.06956683802304975  0.9105948816629588  0.567208333696373  1.0000
  Ti  Ti2       1.0  0.5646684605335848  0.4847985482863424  0.4173674766332452  1.0000
  Ba  Ba2       1.0  0.06117193552033313  0.6129194167366963  0.19655986726956565  1.0000
  O   O1        1.0  0.5687081355709755  0.9656006845208869  0.4542956214451477  1.0000
  O   O2        1.0  0.562016820462143  0.543260682326774  0.3033595171787656  1.0000
  Ti  Ti3       1.0  0.2836528479197657  0.829147382926779  0.8839608188571627  1.0000
  Ti  Ti4       1.0  0.5722895931576196  0.17506037192297988  0.0256644276860162  1.0000
  O   O3        1.0  0.5430722517902973  0.7728391098132582  0.78450440489051  1.0000
  O   O4        1.0  0.5708369150321613  0.37653766509983916  0.6355912654625503  1.0000
  O   O5        1.0  0.5093708321888591  0.6845138094295408  0.9914193618952115  1.0000
  O   O6        1.0  0.031069773944448098  0.13193043533145934  0.010245966379052333  1.0000
  O   O7        1.0  0.05361906082109805  0.2116442335531754  0.7740498545784124  1.0000
  O   O8        1.0  0.5434466002588622  0.13813970830828584  0.14136372437390377  1.0000
  O   O9        1.0  0.47711434170525574  0.24542732318808977  0.8881828643648005  1.0000
  O   O10       1.0  0.0680710162393533  0.4677446880632812  0.4499844485799766  1.0000
