data_image250
_chemical_formula_structural       BaTi2OBaO3
_chemical_formula_sum              "Ba2 Ti2 O4"
_cell_length_a       3.8919889722252816
_cell_length_b       3.886830252464673
_cell_length_c       11.342286109924316
_cell_angle_alpha    100.06567267363978
_cell_angle_beta     100.2318238140362
_cell_angle_gamma    90.43830927078632

_space_group_name_H-M_alt    "P 1"
_space_group_IT_number       1

loop_
  _space_group_symop_operation_xyz
  'x, y, z'

loop_
  _atom_site_type_symbol
  _atom_site_label
  _atom_site_symmetry_multiplicity
  _atom_site_fract_x
  _atom_site_fract_y
  _atom_site_fract_z
  _atom_site_occupancy
  Ba  Ba1       1.0  0.8259031203867842  0.8157107633571566  0.07208120782104774  1.0000
  Ti  Ti1       1.0  0.5099691160966918  0.49836549145202286  0.4449386157019737  1.0000
  Ti  Ti2       1.0  0.009597383064127451  0.9979825608804441  0.4442158385297587  1.0000
  O   O1        1.0  0.31450432572905895  0.30445587984097366  0.05035704648660957  1.0000
  Ba  Ba2       1.0  0.1932543673332066  0.1850279719028431  0.8180224147605429  1.0000
  O   O2        1.0  0.482342379138214  0.9711333372592684  0.3919585321444304  1.0000
  O   O3        1.0  0.7046435850331205  0.6961984491185584  0.8397198413874012  1.0000
  O   O4        1.0  0.03750202745554915  0.5254935227754061  0.49773267059143095  1.0000
