data_image1042
_chemical_formula_structural       BaTiOBaO2
_chemical_formula_sum              "Ba2 Ti1 O3"
_cell_length_a       3.952059459446416
_cell_length_b       4.040049468767593
_cell_length_c       7.397760391235352
_cell_angle_alpha    105.82279820175333
_cell_angle_beta     105.47569278511305
_cell_angle_gamma    90.03352526467138

_space_group_name_H-M_alt    "P 1"
_space_group_IT_number       1

loop_
  _space_group_symop_operation_xyz
  'x, y, z'

loop_
  _atom_site_type_symbol
  _atom_site_label
  _atom_site_symmetry_multiplicity
  _atom_site_fract_x
  _atom_site_fract_y
  _atom_site_fract_z
  _atom_site_occupancy
  Ba  Ba1       1.0  0.2752637667224497  0.9466862422909736  0.027789174437261335  1.0000
  Ti  Ti1       1.0  0.925553284222251  0.5969821281857278  0.32840266373469656  1.0000
  O   O1        1.0  0.06867777931852495  0.7400738668055215  0.6145703915725653  1.0000
  Ba  Ba2       1.0  0.5757027787688088  0.2471451287015687  0.6287831159401055  1.0000
  O   O2        1.0  0.9255058229875962  0.09690626249182281  0.3282510892278252  1.0000
  O   O3        1.0  0.7821888614652067  0.4537046129411867  0.04188590299970021  1.0000
