data_image155
_chemical_formula_structural       TiO2Ba
_chemical_formula_sum              "Ti1 O2 Ba1"
_cell_length_a       3.2771317916564415
_cell_length_b       3.2952451647032728
_cell_length_c       6.2111268043518075
_cell_angle_alpha    105.40282873888084
_cell_angle_beta     105.30526783988427
_cell_angle_gamma    89.98687501768453

_space_group_name_H-M_alt    "P 1"
_space_group_IT_number       1

loop_
  _space_group_symop_operation_xyz
  'x, y, z'

loop_
  _atom_site_type_symbol
  _atom_site_label
  _atom_site_symmetry_multiplicity
  _atom_site_fract_x
  _atom_site_fract_y
  _atom_site_fract_z
  _atom_site_occupancy
  Ti  Ti1       1.0  0.8534801117529499  0.019373482097828194  0.2442094950527455  1.0000
  O   O1        1.0  0.4549733929576762  0.11995739942785444  0.4458522774591234  1.0000
  O   O2        1.0  0.7554451279308341  0.4204830850324999  0.04680475799591349  1.0000
  Ba  Ba1       1.0  0.10428085580572129  0.76869921431281  0.7445018883202286  1.0000
