data_image738
_chemical_formula_structural       OBaOTi
_chemical_formula_sum              "O2 Ba1 Ti1"
_cell_length_a       3.3037848640046654
_cell_length_b       3.303849059238424
_cell_length_c       6.316661834716797
_cell_angle_alpha    74.88430153916252
_cell_angle_beta     74.86344805265371
_cell_angle_gamma    60.07597361663886

_space_group_name_H-M_alt    "P 1"
_space_group_IT_number       1

loop_
  _space_group_symop_operation_xyz
  'x, y, z'

loop_
  _atom_site_type_symbol
  _atom_site_label
  _atom_site_symmetry_multiplicity
  _atom_site_fract_x
  _atom_site_fract_y
  _atom_site_fract_z
  _atom_site_occupancy
  O   O1        1.0  0.19558881404385106  0.9968013506309666  0.6836467347802231  1.0000
  Ba  Ba1       1.0  0.4171388671131947  0.2183591070369724  0.018339992887032096  1.0000
  O   O2        1.0  0.6391926865406441  0.44031999104314024  0.3529399267165819  1.0000
  Ti  Ti1       1.0  0.9175102473547088  0.7186697630794706  0.5181581447433864  1.0000
