data_image317
_chemical_formula_structural       Ba2Ti2O5
_chemical_formula_sum              "Ba2 Ti2 O5"
_cell_length_a       4.001274750802391
_cell_length_b       4.002039441053714
_cell_length_c       8.3014497756958
_cell_angle_alpha    89.99625956082491
_cell_angle_beta     89.98354174750271
_cell_angle_gamma    90.00184665568985

_space_group_name_H-M_alt    "P 1"
_space_group_IT_number       1

loop_
  _space_group_symop_operation_xyz
  'x, y, z'

loop_
  _atom_site_type_symbol
  _atom_site_label
  _atom_site_symmetry_multiplicity
  _atom_site_fract_x
  _atom_site_fract_y
  _atom_site_fract_z
  _atom_site_occupancy
  Ba  Ba1       1.0  0.4106941899614845  0.9636093597255625  0.45407601771793543  1.0000
  Ba  Ba2       1.0  0.4106359220157789  0.963940552799778  0.9540669122209148  1.0000
  Ti  Ti1       1.0  0.9105600094804663  0.46378822100127876  0.18935557125287297  1.0000
  Ti  Ti2       1.0  0.9106606820662666  0.4638434134385165  0.7187903458160124  1.0000
  O   O1        1.0  0.4106753135589454  0.4637342926413232  0.21420323893229545  1.0000
  O   O2        1.0  0.410564430961646  0.4637131218977742  0.6940848660592653  1.0000
  O   O3        1.0  0.9105765188192486  0.9637956094911141  0.6942436103759507  1.0000
  O   O4        1.0  0.9106673463048294  0.9637249565433285  0.21410064174136148  1.0000
  O   O5        1.0  0.9106603029783863  0.4638543713074349  0.9541256274713339  1.0000
