data_image956
_chemical_formula_structural       BaO3BaTiO
_chemical_formula_sum              "Ba2 O4 Ti1"
_cell_length_a       4.038210400851609
_cell_length_b       4.039459646229894
_cell_length_c       7.325658798217773
_cell_angle_alpha    106.03569337849291
_cell_angle_beta     106.05100797177936
_cell_angle_gamma    90.03378475535261

_space_group_name_H-M_alt    "P 1"
_space_group_IT_number       1

loop_
  _space_group_symop_operation_xyz
  'x, y, z'

loop_
  _atom_site_type_symbol
  _atom_site_label
  _atom_site_symmetry_multiplicity
  _atom_site_fract_x
  _atom_site_fract_y
  _atom_site_fract_z
  _atom_site_occupancy
  Ba  Ba1       1.0  0.18284558070087747  0.08548393631816775  0.7153500182095849  1.0000
  O   O1        1.0  0.6869478301276748  0.5895192553821639  0.7230012946408818  1.0000
  O   O2        1.0  0.5389897634988343  0.9416344148972567  0.42782243483011506  1.0000
  O   O3        1.0  0.3908482425568193  0.29362503474217183  0.13260294735597555  1.0000
  Ba  Ba2       1.0  0.8947285325487031  0.7975332591518673  0.14041741103375976  1.0000
  Ti  Ti1       1.0  0.5385772194447582  0.44137588423966384  0.4278658796110211  1.0000
  O   O4        1.0  0.03910312182349217  0.44156386243148876  0.42783745711270066  1.0000
