data_image1013
_chemical_formula_structural       BaTiO2
_chemical_formula_sum              "Ba1 Ti1 O2"
_cell_length_a       3.2967399689876813
_cell_length_b       3.2965010871519693
_cell_length_c       6.320642471313476
_cell_angle_alpha    90.03577903321904
_cell_angle_beta     105.05725568677151
_cell_angle_gamma    119.94682173915506

_space_group_name_H-M_alt    "P 1"
_space_group_IT_number       1

loop_
  _space_group_symop_operation_xyz
  'x, y, z'

loop_
  _atom_site_type_symbol
  _atom_site_label
  _atom_site_symmetry_multiplicity
  _atom_site_fract_x
  _atom_site_fract_y
  _atom_site_fract_z
  _atom_site_occupancy
  Ba  Ba1       1.0  0.8572834910417986  0.34073368092492323  0.24224244255995886  1.0000
  Ti  Ti1       1.0  0.8571514795302514  0.8403909136606219  0.742147945312348  1.0000
  O   O1        1.0  0.41355300441468196  0.11870590580006746  0.5761875608707654  1.0000
  O   O2        1.0  0.3011368269067225  0.562824800404366  0.908296759884125  1.0000
