data_image105
_chemical_formula_structural       TiBa2O2
_chemical_formula_sum              "Ti1 Ba2 O2"
_cell_length_a       3.7707081529194078
_cell_length_b       3.762961879674928
_cell_length_c       9.97175121307373
_cell_angle_alpha    100.85794028720477
_cell_angle_beta     100.72594036617137
_cell_angle_gamma    89.97768142739861

_space_group_name_H-M_alt    "P 1"
_space_group_IT_number       1

loop_
  _space_group_symop_operation_xyz
  'x, y, z'

loop_
  _atom_site_type_symbol
  _atom_site_label
  _atom_site_symmetry_multiplicity
  _atom_site_fract_x
  _atom_site_fract_y
  _atom_site_fract_z
  _atom_site_occupancy
  Ti  Ti1       1.0  0.34821414282986773  0.015762408444088258  0.6973068473126344  1.0000
  Ba  Ba1       1.0  0.7160286324408105  0.3818243590782376  0.42934547535495826  1.0000
  Ba  Ba2       1.0  0.9804519638089606  0.649628602826819  0.9652136789172223  1.0000
  O   O1        1.0  0.4460209141502229  0.11453522943662532  0.8949666897255285  1.0000
  O   O2        1.0  0.25058340611056956  0.916872568583687  0.4996377960045722  1.0000
