data_image84
_chemical_formula_structural       BaTiBaO2TiO4BaO
_chemical_formula_sum              "Ba3 Ti2 O7"
_cell_length_a       4.0879194261819665
_cell_length_b       3.997990798596591
_cell_length_c       11.799365043640137
_cell_angle_alpha    99.73759202548014
_cell_angle_beta     91.1293742530094
_cell_angle_gamma    89.99907359444786

_space_group_name_H-M_alt    "P 1"
_space_group_IT_number       1

loop_
  _space_group_symop_operation_xyz
  'x, y, z'

loop_
  _atom_site_type_symbol
  _atom_site_label
  _atom_site_symmetry_multiplicity
  _atom_site_fract_x
  _atom_site_fract_y
  _atom_site_fract_z
  _atom_site_occupancy
  Ba  Ba1       1.0  0.9379205056578738  0.08394422800275449  0.9269565386972141  1.0000
  Ti  Ti1       1.0  0.34928307910624873  0.2592421156282059  0.2802177552054704  1.0000
  Ba  Ba2       1.0  0.4108675171896694  0.4615447658449041  0.6830680065428361  1.0000
  O   O1        1.0  0.41539778727755305  0.1712226913675975  0.10259917004854242  1.0000
  O   O2        1.0  0.4094222089260001  0.3420015328533256  0.4466125583548169  1.0000
  Ti  Ti2       1.0  0.4725701863927068  0.6631358878863237  0.08599597967013588  1.0000
  O   O3        1.0  0.4063995879448264  0.7511151405496082  0.2636460322737566  1.0000
  O   O4        1.0  0.9187965151540717  0.2636625754880975  0.2893151250490247  1.0000
  O   O5        1.0  0.9030228704068665  0.6586649046494543  0.07693532487195302  1.0000
  O   O6        1.0  0.4124433232228088  0.5803569406931485  0.9196081485242285  1.0000
  Ba  Ba3       1.0  0.8841590602451952  0.8385852993346613  0.43918181075817914  1.0000
  O   O7        1.0  0.9128734371142163  0.9625247856991278  0.683106011737949  1.0000
