data_image1081
_chemical_formula_structural       TiO2Ba
_chemical_formula_sum              "Ti1 O2 Ba1"
_cell_length_a       3.299996584340556
_cell_length_b       3.3009361805522506
_cell_length_c       6.266708850860595
_cell_angle_alpha    74.75793546159741
_cell_angle_beta     74.7787545497104
_cell_angle_gamma    60.04688568495833

_space_group_name_H-M_alt    "P 1"
_space_group_IT_number       1

loop_
  _space_group_symop_operation_xyz
  'x, y, z'

loop_
  _atom_site_type_symbol
  _atom_site_label
  _atom_site_symmetry_multiplicity
  _atom_site_fract_x
  _atom_site_fract_y
  _atom_site_fract_z
  _atom_site_occupancy
  Ti  Ti1       1.0  0.5659598989663983  0.69928993548542  0.8277441029977024  1.0000
  O   O1        1.0  0.8438842994442132  0.9772722830235533  0.9941448947699144  1.0000
  O   O2        1.0  0.2880818256048718  0.42145926863660454  0.6612263820021215  1.0000
  Ba  Ba1       1.0  0.06577842696323506  0.1993836359143157  0.32770725751263  1.0000
