data_image1
_chemical_formula_structural       O2Ba2O2TiO2TiO4Ti
_chemical_formula_sum              "O10 Ba2 Ti3"
_cell_length_a       4.018150372018466
_cell_length_b       4.039652495403218
_cell_length_c       11.957090377807619
_cell_angle_alpha    90.79393000104278
_cell_angle_beta     90.6396292120845
_cell_angle_gamma    89.81900933037707

_space_group_name_H-M_alt    "P 1"
_space_group_IT_number       1

loop_
  _space_group_symop_operation_xyz
  'x, y, z'

loop_
  _atom_site_type_symbol
  _atom_site_label
  _atom_site_symmetry_multiplicity
  _atom_site_fract_x
  _atom_site_fract_y
  _atom_site_fract_z
  _atom_site_occupancy
  O   O1        1.0  0.30917400154400604  0.6092144965724491  0.6376449695203881  1.0000
  O   O2        1.0  0.31071269170637505  0.5909167054210326  0.9709801142775998  1.0000
  Ba  Ba1       1.0  0.8117392129554204  0.6028729471980547  0.8177093857844375  1.0000
  Ba  Ba2       1.0  0.7970232167999585  0.5859114205255608  0.4722500511040585  1.0000
  O   O3        1.0  0.310912168378306  0.10318514190454305  0.46969963541834187  1.0000
  O   O4        1.0  0.30400079643015254  0.6064189249657178  0.31056766074999476  1.0000
  Ti  Ti1       1.0  0.34198692534802494  0.1409847361943488  0.9959019417652606  1.0000
  O   O5        1.0  0.8027290135532105  0.10070500754938361  0.9707417996625646  1.0000
  O   O6        1.0  0.8134863653613762  0.6065336232645264  0.15665339200873793  1.0000
  Ti  Ti2       1.0  0.2729436454780316  0.05893408474127788  0.3013541097430307  1.0000
  O   O7        1.0  0.32400072445672995  0.11892588897392972  0.1459999465085729  1.0000
  O   O8        1.0  0.8133976023051739  0.09493238738198365  0.3107936794185779  1.0000
  O   O9        1.0  0.31176768958141227  0.10379461072517017  0.7989233838747065  1.0000
  O   O10       1.0  0.8143040942423712  0.1017373620727281  0.6374875505045342  1.0000
  Ti  Ti3       1.0  0.29410766246711  0.07955577869838233  0.645219871852564  1.0000
