data_image19
_chemical_formula_structural       Ba3OTiBa2OTiO5
_chemical_formula_sum              "Ba5 O7 Ti2"
_cell_length_a       6.945547009600764
_cell_length_b       6.643679250994273
_cell_length_c       7.139581680297851
_cell_angle_alpha    83.70947338457378
_cell_angle_beta     79.15248773580156
_cell_angle_gamma    69.41020566873374

_space_group_name_H-M_alt    "P 1"
_space_group_IT_number       1

loop_
  _space_group_symop_operation_xyz
  'x, y, z'

loop_
  _atom_site_type_symbol
  _atom_site_label
  _atom_site_symmetry_multiplicity
  _atom_site_fract_x
  _atom_site_fract_y
  _atom_site_fract_z
  _atom_site_occupancy
  Ba  Ba1       1.0  0.036652571952419145  0.7263089001065718  0.27064960419894085  1.0000
  Ba  Ba2       1.0  0.5686575829328413  0.7102769568939333  0.09764576027326723  1.0000
  Ba  Ba3       1.0  0.30270733921034315  0.7182958045831098  0.6841299996503528  1.0000
  O   O1        1.0  0.4687119094803545  0.028355235494294025  0.8083301440512725  1.0000
  Ti  Ti1       1.0  0.004319797896420499  0.2498503086637374  0.46985394373982603  1.0000
  Ba  Ba4       1.0  0.07855824801912598  0.25130126317548535  0.9505723094367321  1.0000
  Ba  Ba5       1.0  0.5267122246687098  0.1852921596977324  0.41768366044134064  1.0000
  O   O2        1.0  0.8025966906304954  0.2183513981312053  0.6841430381381424  1.0000
  Ti  Ti2       1.0  0.600936903114463  0.18674857671056852  0.8984456765452994  1.0000
  O   O3        1.0  0.3865181180904067  0.4122985857917772  0.02244735803959297  1.0000
  O   O4        1.0  0.21873541122781517  0.024293127073836688  0.34588547017839666  1.0000
  O   O5        1.0  0.7514647109429681  0.030213102309195727  0.08408180359720274  1.0000
  O   O6        1.0  0.8538153460695668  0.4063681033823345  0.28420875852669303  1.0000
  O   O7        1.0  0.13656123700030273  0.4082258426853747  0.5599413155690648  1.0000
