data_image953
_chemical_formula_structural       BaTiO2
_chemical_formula_sum              "Ba1 Ti1 O2"
_cell_length_a       3.31178624850282
_cell_length_b       3.313379083377186
_cell_length_c       6.3049468994140625
_cell_angle_alpha    74.83091043339103
_cell_angle_beta     74.78124157978434
_cell_angle_gamma    60.06237062165548

_space_group_name_H-M_alt    "P 1"
_space_group_IT_number       1

loop_
  _space_group_symop_operation_xyz
  'x, y, z'

loop_
  _atom_site_type_symbol
  _atom_site_label
  _atom_site_symmetry_multiplicity
  _atom_site_fract_x
  _atom_site_fract_y
  _atom_site_fract_z
  _atom_site_occupancy
  Ba  Ba1       1.0  0.2530491986687489  0.021556231520636668  0.04957477997304624  1.0000
  Ti  Ti1       1.0  0.7527007978747314  0.5212140946247631  0.5495272548686657  1.0000
  O   O1        1.0  0.47493382197160516  0.2432426283948433  0.3838150417195844  1.0000
  O   O2        1.0  0.031037388753894807  0.7994898284760033  0.7154071481952737  1.0000
