data_image1011
_chemical_formula_structural       OBaTiO2
_chemical_formula_sum              "O3 Ba1 Ti1"
_cell_length_a       4.0699458425406885
_cell_length_b       4.086069255894105
_cell_length_c       4.086118698120117
_cell_angle_alpha    89.6181402704228
_cell_angle_beta     89.69991813511557
_cell_angle_gamma    89.7254015768702

_space_group_name_H-M_alt    "P 1"
_space_group_IT_number       1

loop_
  _space_group_symop_operation_xyz
  'x, y, z'

loop_
  _atom_site_type_symbol
  _atom_site_label
  _atom_site_symmetry_multiplicity
  _atom_site_fract_x
  _atom_site_fract_y
  _atom_site_fract_z
  _atom_site_occupancy
  O   O1        1.0  0.21627423460638948  0.21965893609030987  0.4212177376215077  1.0000
  Ba  Ba1       1.0  0.2419804781614953  0.7361105265565581  0.9377108948572515  1.0000
  Ti  Ti1       1.0  0.7561131605524685  0.25142488347379655  0.45279180303008715  1.0000
  O   O2        1.0  0.727058114061975  0.22029859275888078  0.9088890283135287  1.0000
  O   O3        1.0  0.7269372123826023  0.7076794580804917  0.42151942117216434  1.0000
