data_image136
_chemical_formula_structural       TiBa2O2TiO4
_chemical_formula_sum              "Ti2 Ba2 O6"
_cell_length_a       4.246313931608662
_cell_length_b       5.628620714122079
_cell_length_c       5.630949020385742
_cell_angle_alpha    90.17990285851515
_cell_angle_beta     90.08033918074896
_cell_angle_gamma    90.0980566977218

_space_group_name_H-M_alt    "P 1"
_space_group_IT_number       1

loop_
  _space_group_symop_operation_xyz
  'x, y, z'

loop_
  _atom_site_type_symbol
  _atom_site_label
  _atom_site_symmetry_multiplicity
  _atom_site_fract_x
  _atom_site_fract_y
  _atom_site_fract_z
  _atom_site_occupancy
  Ti  Ti1       1.0  0.33669831226480845  0.06940600048213103  0.6743223899478563  1.0000
  Ba  Ba1       1.0  0.856009690196025  0.06945833247030624  0.17435223846945644  1.0000
  Ba  Ba2       1.0  0.8559876308228623  0.5694935830393167  0.6743950121730414  1.0000
  O   O1        1.0  0.38634035858922205  0.31979869240819137  0.9244372353852388  1.0000
  O   O2        1.0  0.9082342621175281  0.06936050923166986  0.6743481232111088  1.0000
  Ti  Ti2       1.0  0.3368005887556132  0.5694143108716301  0.1743394733301259  1.0000
  O   O3        1.0  0.3863340670177008  0.8194882274598261  0.42461057874147046  1.0000
  O   O4        1.0  0.3852742547797976  0.3193892675209152  0.4243011071490689  1.0000
  O   O5        1.0  0.38533049491283666  0.8197841113952398  0.9245507098124919  1.0000
  O   O6        1.0  0.9083157719651022  0.5694567091342218  0.1742929988576443  1.0000
