data_image60
_chemical_formula_structural       OBaO2BaTiO4TiO3Ba2
_chemical_formula_sum              "O10 Ba4 Ti2"
_cell_length_a       4.024289757396009
_cell_length_b       4.015262430231472
_cell_length_c       17.190898895263672
_cell_angle_alpha    89.91332056815295
_cell_angle_beta     89.88734536377636
_cell_angle_gamma    89.85089949438712

_space_group_name_H-M_alt    "P 1"
_space_group_IT_number       1

loop_
  _space_group_symop_operation_xyz
  'x, y, z'

loop_
  _atom_site_type_symbol
  _atom_site_label
  _atom_site_symmetry_multiplicity
  _atom_site_fract_x
  _atom_site_fract_y
  _atom_site_fract_z
  _atom_site_occupancy
  O   O1        1.0  0.3375622873570181  0.8589817313067217  0.8787934977571221  1.0000
  Ba  Ba1       1.0  0.8355380542554586  0.8635481806857879  0.7710508718217025  1.0000
  O   O2        1.0  0.32746438133061345  0.15706574278297877  0.6816158620151116  1.0000
  O   O3        1.0  0.33187882617177455  0.7449195012609193  0.5648711203998474  1.0000
  Ba  Ba2       1.0  0.839564961356625  0.82448177925538  0.05286845669801561  1.0000
  Ti  Ti1       1.0  0.33382299467824034  0.3355609357670744  0.9029066716403222  1.0000
  O   O4        1.0  0.8390971241748053  0.3570381394402462  0.8816556532943056  1.0000
  O   O5        1.0  0.34022101900728086  0.8164570814224035  0.15732455199484857  1.0000
  O   O6        1.0  0.336433089726126  0.3365428148593143  0.004491127065708087  1.0000
  O   O7        1.0  0.8410478097416499  0.3231870854951608  0.15767496299234776  1.0000
  Ti  Ti2       1.0  0.3607834368619258  0.2883888412085426  0.5625588266146753  1.0000
  O   O8        1.0  0.34170913188571184  0.39604879115676583  0.742073084751109  1.0000
  O   O9        1.0  0.33489371242012056  0.25682097745551186  0.45070105083063794  1.0000
  O   O10       1.0  0.823765970968081  0.2609623252484108  0.5626694081502414  1.0000
  Ba  Ba3       1.0  0.3405083828200334  0.3152666675799738  0.23828012301118218  1.0000
  Ba  Ba4       1.0  0.8492965286528559  0.7766304334781888  0.4587088246605312  1.0000
