data_image114
_chemical_formula_structural       Ba2TiOTiBaO6
_chemical_formula_sum              "Ba3 Ti2 O7"
_cell_length_a       4.074817407169483
_cell_length_b       4.071316180864257
_cell_length_c       11.112250328063963
_cell_angle_alpha    100.47236278599242
_cell_angle_beta     100.51595918143909
_cell_angle_gamma    89.99026270394488

_space_group_name_H-M_alt    "P 1"
_space_group_IT_number       1

loop_
  _space_group_symop_operation_xyz
  'x, y, z'

loop_
  _atom_site_type_symbol
  _atom_site_label
  _atom_site_symmetry_multiplicity
  _atom_site_fract_x
  _atom_site_fract_y
  _atom_site_fract_z
  _atom_site_occupancy
  Ba  Ba1       1.0  0.21892874911492965  0.29989685307646835  0.8177419366246377  1.0000
  Ba  Ba2       1.0  0.853291880088394  0.9222261310573939  0.08612970831759452  1.0000
  Ti  Ti1       1.0  0.4554914944652919  0.49671617961309755  0.26246610514007607  1.0000
  O   O1        1.0  0.7074782714680761  0.7903012201787448  0.8236920906937172  1.0000
  Ti  Ti2       1.0  0.6455176512085617  0.725824793242453  0.6414430659723266  1.0000
  Ba  Ba3       1.0  0.037148734046917715  0.11102706323589971  0.45197099092765197  1.0000
  O   O2        1.0  0.1073824027796516  0.7010905626966168  0.6405963643946964  1.0000
  O   O3        1.0  0.9186804388887899  0.5211035385348904  0.26329038001581784  1.0000
  O   O4        1.0  0.6190140471458464  0.1915770826517353  0.6407553146166319  1.0000
  O   O5        1.0  0.43014801948101195  0.030788253124899613  0.26314213700895  1.0000
  O   O6        1.0  0.5196454631850351  0.6112633290886968  0.45198540495351164  1.0000
  O   O7        1.0  0.33604339058168126  0.4321820130186269  0.08020119173572587  1.0000
