data_image144
_chemical_formula_structural       TiO2Ba
_chemical_formula_sum              "Ti1 O2 Ba1"
_cell_length_a       3.320285975943458
_cell_length_b       3.3185281442354664
_cell_length_c       6.351868152618407
_cell_angle_alpha    74.83299892287258
_cell_angle_beta     74.81740642531044
_cell_angle_gamma    59.933580200890596

_space_group_name_H-M_alt    "P 1"
_space_group_IT_number       1

loop_
  _space_group_symop_operation_xyz
  'x, y, z'

loop_
  _atom_site_type_symbol
  _atom_site_label
  _atom_site_symmetry_multiplicity
  _atom_site_fract_x
  _atom_site_fract_y
  _atom_site_fract_z
  _atom_site_occupancy
  Ti  Ti1       1.0  0.9603598590489177  0.3749544507278591  0.451568961093067  1.0000
  O   O1        1.0  0.2386327783487567  0.6534765259465465  0.616136594903939  1.0000
  O   O2        1.0  0.6818723940443143  0.09669267247506896  0.28669059510629497  1.0000
  Ba  Ba1       1.0  0.45996391445642787  0.875328213283635  0.9513643810957214  1.0000
