data_image528
_chemical_formula_structural       TiOBaOBaOTiOBaO2TiBaO2
_chemical_formula_sum              "Ti3 O8 Ba4"
_cell_length_a       3.964280359706934
_cell_length_b       3.9614545915967927
_cell_length_c       17.66991424560547
_cell_angle_alpha    90.01821178895928
_cell_angle_beta     89.88418299670457
_cell_angle_gamma    89.95431536751177

_space_group_name_H-M_alt    "P 1"
_space_group_IT_number       1

loop_
  _space_group_symop_operation_xyz
  'x, y, z'

loop_
  _atom_site_type_symbol
  _atom_site_label
  _atom_site_symmetry_multiplicity
  _atom_site_fract_x
  _atom_site_fract_y
  _atom_site_fract_z
  _atom_site_occupancy
  Ti  Ti1       1.0  0.9724358221760194  0.457408501272801  0.7485366317560914  1.0000
  O   O1        1.0  0.9780424326991438  0.9550054631653718  0.09652055852988087  1.0000
  Ba  Ba1       1.0  0.9793788567407244  0.45484170857551104  0.9790872811792457  1.0000
  O   O2        1.0  0.4769017152787353  0.955101151180702  0.21625519588374822  1.0000
  Ba  Ba2       1.0  0.4736280471584951  0.9558685000020021  0.6289183922604829  1.0000
  O   O3        1.0  0.4780256369738151  0.45499917835471854  0.09655064771666069  1.0000
  Ti  Ti2       1.0  0.9746362951095199  0.45562595155559527  0.4999260046216661  1.0000
  O   O4        1.0  0.4746611274674911  0.45561908325001943  0.49741662431799843  1.0000
  Ba  Ba3       1.0  0.4755968583048178  0.9554674592145881  0.3831069194408034  1.0000
  O   O5        1.0  0.97274929137732  0.9542047380768971  0.7371701019969222  1.0000
  O   O6        1.0  0.4727863017549944  0.4551280711566008  0.7372599664775964  1.0000
  Ti  Ti3       1.0  0.47812307643529417  0.9549596310321109  0.0941735519014325  1.0000
  Ba  Ba4       1.0  0.9770245504167204  0.45510206999715414  0.20496167649996677  1.0000
  O   O7        1.0  0.9746579525905261  0.9556311519710979  0.49733042065115685  1.0000
  O   O8        1.0  0.479155406336449  0.9548794540934485  0.985143195205661  1.0000
