data_image77
_chemical_formula_structural       Ba3O2TiO2TiO2TiBaO3
_chemical_formula_sum              "Ba4 O9 Ti3"
_cell_length_a       4.005274992804413
_cell_length_b       4.007751645579699
_cell_length_c       16.077035903930664
_cell_angle_alpha    90.03282156290634
_cell_angle_beta     90.01899726303688
_cell_angle_gamma    89.99513940954697

_space_group_name_H-M_alt    "P 1"
_space_group_IT_number       1

loop_
  _space_group_symop_operation_xyz
  'x, y, z'

loop_
  _atom_site_type_symbol
  _atom_site_label
  _atom_site_symmetry_multiplicity
  _atom_site_fract_x
  _atom_site_fract_y
  _atom_site_fract_z
  _atom_site_occupancy
  Ba  Ba1       1.0  0.40722720548311037  0.425636795755932  0.2814214877061384  1.0000
  Ba  Ba2       1.0  0.4101635015888241  0.4352454791702139  0.5369201654481751  1.0000
  Ba  Ba3       1.0  0.9319704716540815  0.9524084732829544  0.9731655358724617  1.0000
  O   O1        1.0  0.9148732846260094  0.43267422170332154  0.6654117668156624  1.0000
  O   O2        1.0  0.9159474434607424  0.9351582583611814  0.7906237250988178  1.0000
  Ti  Ti1       1.0  0.9135846482240607  0.9362134338782327  0.6685657480165227  1.0000
  O   O3        1.0  0.9212081053992714  0.4423528367524576  0.14885228959893057  1.0000
  O   O4        1.0  0.42651146141978585  0.9373665823923355  0.14893095348972896  1.0000
  Ti  Ti2       1.0  0.8978832856273004  0.9129576472751081  0.16690462077093912  1.0000
  O   O5        1.0  0.421445553518277  0.9241623334683541  0.4091472207821821  1.0000
  O   O6        1.0  0.9143130257348709  0.9303274608345548  0.5350119884734601  1.0000
  Ti  Ti3       1.0  0.8992100212234355  0.9431496202814893  0.41608241201053664  1.0000
  Ba  Ba4       1.0  0.415961700924879  0.4363585496980393  0.7823836574207099  1.0000
  O   O7        1.0  0.41514742373869623  0.9332518741975987  0.6653951966041394  1.0000
  O   O8        1.0  0.9175760043341873  0.4195652026012514  0.40914023165106167  1.0000
  O   O9        1.0  0.9129130480969283  0.9250453764444505  0.280929533797353  1.0000
