data_image947
_chemical_formula_structural       BaO2Ti
_chemical_formula_sum              "Ba1 O2 Ti1"
_cell_length_a       3.3080149895938398
_cell_length_b       3.3090048164659662
_cell_length_c       6.3119635581970215
_cell_angle_alpha    74.83444093464638
_cell_angle_beta     74.8368727872018
_cell_angle_gamma    60.03814380031615

_space_group_name_H-M_alt    "P 1"
_space_group_IT_number       1

loop_
  _space_group_symop_operation_xyz
  'x, y, z'

loop_
  _atom_site_type_symbol
  _atom_site_label
  _atom_site_symmetry_multiplicity
  _atom_site_fract_x
  _atom_site_fract_y
  _atom_site_fract_z
  _atom_site_occupancy
  Ba  Ba1       1.0  0.30564242128026087  0.5145324270394253  0.5264422306076914  1.0000
  O   O1        1.0  0.5273069809742411  0.7364294442952133  0.8611910673828002  1.0000
  O   O2        1.0  0.08376615475868122  0.2929771196267124  0.19169752960884512  1.0000
  Ti  Ti1       1.0  0.8054898286643318  0.014787561879330322  0.02643685739998663  1.0000
