data_image106
_chemical_formula_structural       BaOTiO2
_chemical_formula_sum              "Ba1 O3 Ti1"
_cell_length_a       3.9726446272867144
_cell_length_b       4.110554716553263
_cell_length_c       4.143927574157715
_cell_angle_alpha    89.56099209474577
_cell_angle_beta     90.12593753944547
_cell_angle_gamma    90.12250194706098

_space_group_name_H-M_alt    "P 1"
_space_group_IT_number       1

loop_
  _space_group_symop_operation_xyz
  'x, y, z'

loop_
  _atom_site_type_symbol
  _atom_site_label
  _atom_site_symmetry_multiplicity
  _atom_site_fract_x
  _atom_site_fract_y
  _atom_site_fract_z
  _atom_site_occupancy
  Ba  Ba1       1.0  0.8561565630209731  0.9273759299280275  0.7329032202480359  1.0000
  O   O1        1.0  0.354176953646483  0.9603751598816876  0.2504794132434059  1.0000
  Ti  Ti1       1.0  0.3574355355400825  0.41124120318875024  0.21519731873761874  1.0000
  O   O2        1.0  0.8537245790327763  0.45117451087995336  0.25774558254276336  1.0000
  O   O3        1.0  0.35460134318481323  0.4425514986697568  0.7699014042941092  1.0000
