data_image409
_chemical_formula_structural       BaTiBaOTiO5
_chemical_formula_sum              "Ba2 Ti2 O6"
_cell_length_a       5.724485137422365
_cell_length_b       7.2300491117199535
_cell_length_c       5.429565906524659
_cell_angle_alpha    89.92510264815694
_cell_angle_beta     89.96335854180299
_cell_angle_gamma    117.75080583182134

_space_group_name_H-M_alt    "P 1"
_space_group_IT_number       1

loop_
  _space_group_symop_operation_xyz
  'x, y, z'

loop_
  _atom_site_type_symbol
  _atom_site_label
  _atom_site_symmetry_multiplicity
  _atom_site_fract_x
  _atom_site_fract_y
  _atom_site_fract_z
  _atom_site_occupancy
  Ba  Ba1       1.0  0.8369895537440355  0.16121169441144823  0.7979432759335838  1.0000
  Ti  Ti1       1.0  0.546664381132567  0.5053049082076282  0.7972019992969389  1.0000
  Ba  Ba2       1.0  0.23190692010635064  0.6673546385733209  0.2971082927304665  1.0000
  O   O1        1.0  0.28735373692645594  0.3511592898911616  0.04967583299413522  1.0000
  Ti  Ti2       1.0  0.5222082666043879  0.3233014073214345  0.2974300524922969  1.0000
  O   O2        1.0  0.28746458743410364  0.3516730447140044  0.5450684069516245  1.0000
  O   O3        1.0  0.7813204942533752  0.4767636051681459  0.549686357599442  1.0000
  O   O4        1.0  0.5508030479019661  0.7517206943710316  0.7969004867054604  1.0000
  O   O5        1.0  0.5180972944874841  0.07692516865903606  0.29744107600055886  1.0000
  O   O6        1.0  0.7815585888197855  0.4774634198346866  0.04498523795155159  1.0000
