data_image362
_chemical_formula_structural       TiBaTiBaOBa2O7
_chemical_formula_sum              "Ti2 Ba4 O8"
_cell_length_a       6.223012817883406
_cell_length_b       6.230306544688098
_cell_length_c       7.537072658538818
_cell_angle_alpha    109.4282291160099
_cell_angle_beta     89.97009993484383
_cell_angle_gamma    89.89720131664807

_space_group_name_H-M_alt    "P 1"
_space_group_IT_number       1

loop_
  _space_group_symop_operation_xyz
  'x, y, z'

loop_
  _atom_site_type_symbol
  _atom_site_label
  _atom_site_symmetry_multiplicity
  _atom_site_fract_x
  _atom_site_fract_y
  _atom_site_fract_z
  _atom_site_occupancy
  Ti  Ti1       1.0  0.0181665328993201  0.1847589750808586  0.41309682876597537  1.0000
  Ba  Ba1       1.0  0.017960697439103192  0.7240317659565485  0.7770675981912742  1.0000
  Ti  Ti2       1.0  0.5181356385005224  0.6807294861798403  0.007306680920162326  1.0000
  Ba  Ba2       1.0  0.5186711188926019  0.24295993256712997  0.18153612824580442  1.0000
  O   O1        1.0  0.5185506910490961  0.8379146201893581  0.2589383523984301  1.0000
  Ba  Ba3       1.0  0.5184895911733111  0.14190424170103705  0.6435179308404576  1.0000
  Ba  Ba4       1.0  0.017485419821934554  0.6224484202580312  0.23884013851828811  1.0000
  O   O2        1.0  0.01763000166276895  0.9876294142799755  0.5502154064002154  1.0000
  O   O3        1.0  0.017747246421646046  0.027570318008281282  0.1614133680472823  1.0000
  O   O4        1.0  0.7889152126823172  0.38029143665340415  0.4692046801096157  1.0000
  O   O5        1.0  0.7472601555021835  0.48492449513171704  0.9511638199880482  1.0000
  O   O6        1.0  0.28902003916033825  0.48588150778427003  0.9513815980351674  1.0000
  O   O7        1.0  0.24719296787314587  0.3797885410128854  0.4689385784872728  1.0000
  O   O8        1.0  0.5187261737516815  0.877852532504814  0.8701635580899736  1.0000
