data_image333
_chemical_formula_structural       OBaOTiBaO3
_chemical_formula_sum              "O5 Ba2 Ti1"
_cell_length_a       3.8530682403257845
_cell_length_b       6.385960690826267
_cell_length_c       7.6042985916137695
_cell_angle_alpha    60.17590029420677
_cell_angle_beta     76.04077575277873
_cell_angle_gamma    73.41600158892265

_space_group_name_H-M_alt    "P 1"
_space_group_IT_number       1

loop_
  _space_group_symop_operation_xyz
  'x, y, z'

loop_
  _atom_site_type_symbol
  _atom_site_label
  _atom_site_symmetry_multiplicity
  _atom_site_fract_x
  _atom_site_fract_y
  _atom_site_fract_z
  _atom_site_occupancy
  O   O1        1.0  0.6144046783447266  0.05841716751456261  0.965259313583374  1.0000
  Ba  Ba1       1.0  0.3636378049850464  0.26016172766685486  0.26885759830474854  1.0000
  O   O2        1.0  0.2642407715320587  0.7394130229949951  0.9897183775901794  1.0000
  Ti  Ti1       1.0  0.13692966103553772  0.07282138615846634  0.9015178680419922  1.0000
  Ba  Ba2       1.0  0.4842550158500672  0.6068885326385498  0.677116334438324  1.0000
  O   O3        1.0  0.9444539546966554  0.916915535926819  0.4472576379776001  1.0000
  O   O4        1.0  0.17347264289855957  0.27075374126434326  0.6327630877494812  1.0000
  O   O5        1.0  0.9647350311279298  0.32573723793029785  0.9931471943855286  1.0000
