data_image654
_chemical_formula_structural       BaTiOBaTiOTiBaO2TiOBaO7
_chemical_formula_sum              "Ba4 Ti4 O12"
_cell_length_a       5.718408402531802
_cell_length_b       5.837077161281313
_cell_length_c       10.709487915039062
_cell_angle_alpha    78.41393247957544
_cell_angle_beta     73.83820247413755
_cell_angle_gamma    61.01263870086531

_space_group_name_H-M_alt    "P 1"
_space_group_IT_number       1

loop_
  _space_group_symop_operation_xyz
  'x, y, z'

loop_
  _atom_site_type_symbol
  _atom_site_label
  _atom_site_symmetry_multiplicity
  _atom_site_fract_x
  _atom_site_fract_y
  _atom_site_fract_z
  _atom_site_occupancy
  Ba  Ba1       1.0  0.28819653391838074  0.17501816153526306  0.719497561454773  1.0000
  Ti  Ti1       1.0  0.5578921437263489  0.4316746890544891  0.9487565755844116  1.0000
  O   O1        1.0  0.6520662307739258  0.7160449028015137  0.840459942817688  1.0000
  Ba  Ba2       1.0  0.4611820876598358  0.2397501766681671  0.3249724507331848  1.0000
  Ti  Ti2       1.0  0.8452195525169373  0.5916774868965149  0.2129783034324646  1.0000
  O   O2        1.0  0.26623365283012396  0.4262799918651581  0.07752780616283415  1.0000
  Ti  Ti3       1.0  0.8862596750259399  0.7965821623802185  0.8974906206130981  1.0000
  Ba  Ba3       1.0  0.6911946535110474  0.5367850661277771  0.5496917963027954  1.0000
  O   O3        1.0  0.9673401713371277  0.7382791042327881  0.3022375702857971  1.0000
  O   O4        1.0  0.752278745174408  0.4292289912700653  0.06146682798862455  1.0000
  Ti  Ti4       1.0  0.07034325599670418  0.8840839266777037  0.4529658257961273  1.0000
  O   O5        1.0  0.9612727165222168  0.25779929757118225  0.30420687794685364  1.0000
  Ba  Ba4       1.0  0.2087576091289521  0.9720764756202697  0.10678650438785553  1.0000
  O   O6        1.0  0.4831553697586059  0.7354992628097534  0.299750953912735  1.0000
  O   O7        1.0  0.7136812806129456  0.03367697820067406  0.5322747826576233  1.0000
  O   O8        1.0  0.20527073740959167  0.030307725071907047  0.5293413996696472  1.0000
  O   O9        1.0  0.7732425332069397  0.1587001532316208  0.8304250836372375  1.0000
  O   O10       1.0  0.19524091482162473  0.5495192408561707  0.5302749872207642  1.0000
  O   O11       1.0  0.7773826122283936  0.8879108428955078  0.06529611349105835  1.0000
  O   O12       1.0  0.24782930314540863  0.6139277219772339  0.8268343806266785  1.0000
