data_image620
_chemical_formula_structural       TiBa2O3TiBaO4
_chemical_formula_sum              "Ti2 Ba3 O7"
_cell_length_a       4.078982632422313
_cell_length_b       4.080280202414274
_cell_length_c       11.09536361694336
_cell_angle_alpha    100.51899987988881
_cell_angle_beta     100.51450566892495
_cell_angle_gamma    90.17460251092223

_space_group_name_H-M_alt    "P 1"
_space_group_IT_number       1

loop_
  _space_group_symop_operation_xyz
  'x, y, z'

loop_
  _atom_site_type_symbol
  _atom_site_label
  _atom_site_symmetry_multiplicity
  _atom_site_fract_x
  _atom_site_fract_y
  _atom_site_fract_z
  _atom_site_occupancy
  Ti  Ti1       1.0  0.18710486590862274  0.7742692828178406  0.2058403640985489  1.0000
  Ba  Ba1       1.0  0.42380574345588684  0.980331301689148  0.6500688791275024  1.0000
  Ba  Ba2       1.0  0.7888023257255554  0.3461475074291229  0.38130950927734375  1.0000
  O   O1        1.0  0.021231668069958687  0.04691248759627342  0.826324999332428  1.0000
  O   O2        1.0  0.7213795781135559  0.7493588924407959  0.20524269342422485  1.0000
  O   O3        1.0  0.5325583219528198  0.5586881041526794  0.8263981938362122  1.0000
  Ti  Ti2       1.0  0.9974503517150879  0.5835852026939392  0.8255366683006287  1.0000
  Ba  Ba3       1.0  0.6037663817405701  0.16634704172611237  0.016015050932765007  1.0000
  O   O4        1.0  0.934987485408783  0.4642714858055115  0.6444410085678101  1.0000
  O   O5        1.0  0.11992485821247101  0.6491804718971252  0.016246004030108452  1.0000
  O   O6        1.0  0.20961298048496246  0.23759080469608307  0.20555907487869263  1.0000
  O   O7        1.0  0.3053818643093109  0.8346875905990601  0.3869570195674896  1.0000
