data_image394
_chemical_formula_structural       BaTiO2
_chemical_formula_sum              "Ba1 Ti1 O2"
_cell_length_a       4.075740238437707
_cell_length_b       4.035019280057617
_cell_length_c       4.038928031921387
_cell_angle_alpha    90.02417454517958
_cell_angle_beta     90.02467314874907
_cell_angle_gamma    89.99428563662424

_space_group_name_H-M_alt    "P 1"
_space_group_IT_number       1

loop_
  _space_group_symop_operation_xyz
  'x, y, z'

loop_
  _atom_site_type_symbol
  _atom_site_label
  _atom_site_symmetry_multiplicity
  _atom_site_fract_x
  _atom_site_fract_y
  _atom_site_fract_z
  _atom_site_occupancy
  Ba  Ba1       1.0  0.4636256992816925  0.7999877333641052  0.1740196943283081  1.0000
  Ti  Ti1       1.0  0.964440643787384  0.29953551292419434  0.6738224625587463  1.0000
  O   O1        1.0  0.9632692933082581  0.29992306232452387  0.1743031144142151  1.0000
  O   O2        1.0  0.9633985161781311  0.8002886772155762  0.6739186644554138  1.0000
