data_image325
_chemical_formula_structural       TiOBaOTiOTiBa2O6
_chemical_formula_sum              "Ti3 O9 Ba3"
_cell_length_a       5.396474787682443
_cell_length_b       6.499238588605922
_cell_length_c       9.124560356140137
_cell_angle_alpha    78.28679488706106
_cell_angle_beta     76.873178271053
_cell_angle_gamma    67.69163288252123

_space_group_name_H-M_alt    "P 1"
_space_group_IT_number       1

loop_
  _space_group_symop_operation_xyz
  'x, y, z'

loop_
  _atom_site_type_symbol
  _atom_site_label
  _atom_site_symmetry_multiplicity
  _atom_site_fract_x
  _atom_site_fract_y
  _atom_site_fract_z
  _atom_site_occupancy
  Ti  Ti1       1.0  0.7523624300956726  0.8918399810791016  0.7002394199371338  1.0000
  O   O1        1.0  0.6465963721275331  0.624666690826416  0.7344379425048828  1.0000
  Ba  Ba1       1.0  0.12039497494697571  0.315416157245636  0.6137803196907043  1.0000
  O   O2        1.0  0.39881274104118347  0.010502558201551437  0.8252384662628174  1.0000
  Ti  Ti2       1.0  0.2685092389583588  0.774189829826355  0.8071411848068237  1.0000
  O   O3        1.0  0.6420800685882567  0.7778218984603882  0.19638784229755404  1.0000
  Ti  Ti3       1.0  0.9362357258796692  0.5268422961235046  0.1634234040975571  1.0000
  Ba  Ba2       1.0  0.12426958233118057  0.8711714148521422  0.3248479664325714  1.0000
  Ba  Ba3       1.0  0.5674315690994263  0.18331861495971677  0.03034185990691185  1.0000
  O   O4        1.0  0.17681907117366794  0.6081805229187011  0.9925346374511719  1.0000
  O   O5        1.0  0.14542441070079806  0.708578050136566  0.6415369510650635  1.0000
  O   O6        1.0  0.9153020977973938  0.020881202071905136  0.8035172820091248  1.0000
  O   O7        1.0  0.9279230237007142  0.2597468793392181  0.13907577097415924  1.0000
  O   O8        1.0  0.6833314895629883  0.06052805110812187  0.5248881578445435  1.0000
  O   O9        1.0  0.11513128876686096  0.46577557921409607  0.3176936209201813  1.0000
