data_image390
_chemical_formula_structural       BaO2Ti
_chemical_formula_sum              "Ba1 O2 Ti1"
_cell_length_a       3.306671472974898
_cell_length_b       3.308498125595572
_cell_length_c       6.304685115814209
_cell_angle_alpha    74.83223472269997
_cell_angle_beta     74.83101329420602
_cell_angle_gamma    60.04824309839481

_space_group_name_H-M_alt    "P 1"
_space_group_IT_number       1

loop_
  _space_group_symop_operation_xyz
  'x, y, z'

loop_
  _atom_site_type_symbol
  _atom_site_label
  _atom_site_symmetry_multiplicity
  _atom_site_fract_x
  _atom_site_fract_y
  _atom_site_fract_z
  _atom_site_occupancy
  Ba  Ba1       1.0  0.28990006446838384  0.7791802883148193  0.7480226755142212  1.0000
  O   O1        1.0  0.511901319026947  0.001481175422668457  0.0816345363855362  1.0000
  O   O2        1.0  0.06717108190059665  0.5569907426834106  0.41502800583839417  1.0000
  Ti  Ti1       1.0  0.7899420261383057  0.2786440551280975  0.24856379628181458  1.0000
