data_image165
_chemical_formula_structural       OTiO
_chemical_formula_sum              "O2 Ti1"
_cell_length_a       2.9983042268780213
_cell_length_b       2.9994034873426307
_cell_length_c       5.773193359375
_cell_angle_alpha    75.43152260336063
_cell_angle_beta     75.36502308253746
_cell_angle_gamma    59.97105497187036

_space_group_name_H-M_alt    "P 1"
_space_group_IT_number       1

loop_
  _space_group_symop_operation_xyz
  'x, y, z'

loop_
  _atom_site_type_symbol
  _atom_site_label
  _atom_site_symmetry_multiplicity
  _atom_site_fract_x
  _atom_site_fract_y
  _atom_site_fract_z
  _atom_site_occupancy
  O   O1        1.0  0.39027196168899536  0.2535392642021179  0.8563355207443237  1.0000
  Ti  Ti1       1.0  0.7811724543571472  0.643813967704773  0.6839301586151123  1.0000
  O   O2        1.0  0.17178843915462497  0.03408044949173927  0.5104602575302124  1.0000
