data_image387
_chemical_formula_structural       TiOBaTiO2TiO2TiO3
_chemical_formula_sum              "Ti4 O8 Ba1"
_cell_length_a       5.918478589112064
_cell_length_b       5.920205712038547
_cell_length_c       7.292644023895264
_cell_angle_alpha    66.21875071873737
_cell_angle_beta     66.29917769702173
_cell_angle_gamma    60.25940619482137

_space_group_name_H-M_alt    "P 1"
_space_group_IT_number       1

loop_
  _space_group_symop_operation_xyz
  'x, y, z'

loop_
  _atom_site_type_symbol
  _atom_site_label
  _atom_site_symmetry_multiplicity
  _atom_site_fract_x
  _atom_site_fract_y
  _atom_site_fract_z
  _atom_site_occupancy
  Ti  Ti1       1.0  0.2825346887111664  0.8074297308921813  0.5872719287872314  1.0000
  O   O1        1.0  0.059529364109039355  0.5865949988365172  0.7552663087844849  1.0000
  Ba  Ba1       1.0  0.7837386131286621  0.8070286512374877  0.08898378908634186  1.0000
  Ti  Ti2       1.0  0.7827155590057373  0.307451993227005  0.5894200801849365  1.0000
  O   O2        1.0  0.5637016296386719  0.5874940752983093  0.7461461424827576  1.0000
  O   O3        1.0  0.5059720873832703  0.5304955244064331  0.4216150641441345  1.0000
  Ti  Ti3       1.0  0.28325688838958735  0.307245135307312  0.5890587568283081  1.0000
  O   O4        1.0  0.003821788588538781  0.530759871006012  0.4230766296386718  1.0000
  O   O5        1.0  0.506007194519043  0.02814962901175022  0.4226319789886475  1.0000
  Ti  Ti4       1.0  0.7830325365066528  0.8075575828552246  0.5889040231704712  1.0000
  O   O6        1.0  0.0021468400955200182  0.02724413573741913  0.4313822388648987  1.0000
  O   O7        1.0  0.06065030023455619  0.08448009192943573  0.755760133266449  1.0000
  O   O8        1.0  0.5626929402351379  0.08392072468996048  0.7552938461303711  1.0000
