data_image469
_chemical_formula_structural       OBaTiOBaTiBaO3TiOTiO2
_chemical_formula_sum              "O8 Ba3 Ti4"
_cell_length_a       4.048484959332299
_cell_length_b       5.80318658391308
_cell_length_c       10.100223541259766
_cell_angle_alpha    90.11923029202093
_cell_angle_beta     90.03206341306517
_cell_angle_gamma    90.03549216571412

_space_group_name_H-M_alt    "P 1"
_space_group_IT_number       1

loop_
  _space_group_symop_operation_xyz
  'x, y, z'

loop_
  _atom_site_type_symbol
  _atom_site_label
  _atom_site_symmetry_multiplicity
  _atom_site_fract_x
  _atom_site_fract_y
  _atom_site_fract_z
  _atom_site_occupancy
  O   O1        1.0  0.5444948077201843  0.4843479394912719  0.72479248046875  1.0000
  Ba  Ba1       1.0  0.5432500243186951  0.736906111240387  0.36551031470298767  1.0000
  Ti  Ti1       1.0  0.04372861608862877  0.2399075478315353  0.3720986843109131  1.0000
  O   O2        1.0  0.043336447328329086  0.23693493008613584  0.5689002275466919  1.0000
  Ba  Ba2       1.0  0.04397435858845711  0.23863884806632996  0.8244163990020752  1.0000
  Ti  Ti2       1.0  0.5442297458648682  0.7394062876701355  0.846748411655426  1.0000
  Ba  Ba3       1.0  0.5439593195915222  0.23608213663101194  0.12688873708248138  1.0000
  O   O3        1.0  0.044138334691524506  0.7376580834388733  0.8825172781944275  1.0000
  O   O4        1.0  0.0437927208840847  0.4923232793807983  0.2349368929862976  1.0000
  O   O5        1.0  0.04408791661262512  0.9805104732513428  0.2413126826286316  1.0000
  Ti  Ti3       1.0  0.043943341821432114  0.7380655407905578  0.08872019499540329  1.0000
  O   O6        1.0  0.5436227321624756  0.23712897300720215  0.3840678334236145  1.0000
  Ti  Ti4       1.0  0.5435070991516113  0.23781621456146237  0.5848589539527893  1.0000
  O   O7        1.0  0.544036328792572  0.9954410195350647  0.7278063297271729  1.0000
  O   O8        1.0  0.5439258813858032  0.7390332818031311  0.06632532924413681  1.0000
