data_image497
_chemical_formula_structural       BaOTi2O2BaO3
_chemical_formula_sum              "Ba2 O6 Ti2"
_cell_length_a       4.253221240614264
_cell_length_b       5.6464593063315665
_cell_length_c       5.645424842834473
_cell_angle_alpha    90.05485575267663
_cell_angle_beta     90.01781563873172
_cell_angle_gamma    89.99237318318639

_space_group_name_H-M_alt    "P 1"
_space_group_IT_number       1

loop_
  _space_group_symop_operation_xyz
  'x, y, z'

loop_
  _atom_site_type_symbol
  _atom_site_label
  _atom_site_symmetry_multiplicity
  _atom_site_fract_x
  _atom_site_fract_y
  _atom_site_fract_z
  _atom_site_occupancy
  Ba  Ba1       1.0  0.03377878665924072  0.5094801783561707  0.979336142539978  1.0000
  O   O1        1.0  0.974254310131073  0.5100091099739075  0.4796074628829956  1.0000
  Ti  Ti1       1.0  0.5520147681236267  0.5091190934181213  0.4794387221336365  1.0000
  Ti  Ti2       1.0  0.552269458770752  0.00988315511494875  0.9797075986862183  1.0000
  O   O2        1.0  0.49633151292800903  0.7593463659286499  0.7294312119483948  1.0000
  O   O3        1.0  0.496859073638916  0.759800374507904  0.22940704226493835  1.0000
  Ba  Ba2       1.0  0.03327074646949768  0.009982407093048096  0.47914034128189087  1.0000
  O   O4        1.0  0.4973919093608856  0.2599739730358124  0.7291610836982727  1.0000
  O   O5        1.0  0.9742705225944519  0.009511590003967285  0.9794561862945557  1.0000
  O   O6        1.0  0.4976870119571686  0.25989386439323425  0.22957131266593933  1.0000
