data_image268
_chemical_formula_structural       TiBa2TiO6
_chemical_formula_sum              "Ti2 Ba2 O6"
_cell_length_a       4.0579262358426185
_cell_length_b       6.21495279126254
_cell_length_c       7.870169162750244
_cell_angle_alpha    113.06055125510346
_cell_angle_beta     89.99032412682152
_cell_angle_gamma    90.04021865817586

_space_group_name_H-M_alt    "P 1"
_space_group_IT_number       1

loop_
  _space_group_symop_operation_xyz
  'x, y, z'

loop_
  _atom_site_type_symbol
  _atom_site_label
  _atom_site_symmetry_multiplicity
  _atom_site_fract_x
  _atom_site_fract_y
  _atom_site_fract_z
  _atom_site_occupancy
  Ti  Ti1       1.0  0.0912754088640213  0.6676790118217468  0.8840462565422059  1.0000
  Ba  Ba1       1.0  0.5912997126579285  0.26475033164024353  0.0097823990508914  1.0000
  Ba  Ba2       1.0  0.09074558317661285  0.785862147808075  0.4497149586677552  1.0000
  Ti  Ti2       1.0  0.5903627276420593  0.3838989734649658  0.5750663876533508  1.0000
  O   O1        1.0  0.09126757830381393  0.4561379849910736  0.6206257343292236  1.0000
  O   O2        1.0  0.5910128951072693  0.46301260590553284  0.37722340226173406  1.0000
  O   O3        1.0  0.59124755859375  0.08503109216690063  0.542453944683075  1.0000
  O   O4        1.0  0.09122013300657272  0.5888983011245728  0.08127787709236145  1.0000
  O   O5        1.0  0.09153886139392853  0.9673952460289001  0.9186125397682191  1.0000
  O   O6        1.0  0.5916876196861267  0.5964716076850891  0.8368830680847169  1.0000
