data_image463
_chemical_formula_structural       BaTi2O2TiOTiO4
_chemical_formula_sum              "Ba1 Ti4 O7"
_cell_length_a       4.117240001140749
_cell_length_b       4.12022475721952
_cell_length_c       8.76205825805664
_cell_angle_alpha    103.41029940988722
_cell_angle_beta     103.41705532069089
_cell_angle_gamma    89.84408312392014

_space_group_name_H-M_alt    "P 1"
_space_group_IT_number       1

loop_
  _space_group_symop_operation_xyz
  'x, y, z'

loop_
  _atom_site_type_symbol
  _atom_site_label
  _atom_site_symmetry_multiplicity
  _atom_site_fract_x
  _atom_site_fract_y
  _atom_site_fract_z
  _atom_site_occupancy
  Ba  Ba1       1.0  0.17993323504924774  0.3812645971775055  0.8507927656173706  1.0000
  Ti  Ti1       1.0  0.42976343631744385  0.13130223751068115  0.35171186923980713  1.0000
  Ti  Ti2       1.0  0.7969720363616943  0.9990989565849304  0.08660602569580078  1.0000
  O   O1        1.0  0.30442678928375244  0.006194227375090122  0.10091515630483627  1.0000
  O   O2        1.0  0.6791359782218933  0.880935549736023  0.8504615426063538  1.0000
  Ti  Ti3       1.0  0.9293419122695923  0.6315523982048035  0.35135433077812195  1.0000
  O   O3        1.0  0.9249852299690247  0.12718665599822998  0.34311023354530334  1.0000
  Ti  Ti4       1.0  0.5618078708648682  0.7636148929595947  0.6140641570091248  1.0000
  O   O4        1.0  0.43296560645103455  0.6350430846214294  0.3585233688354492  1.0000
  O   O5        1.0  0.803915798664093  0.5060199499130248  0.10040160268545151  1.0000
  O   O6        1.0  0.5544927716255188  0.25629332661628723  0.6005935072898865  1.0000
  O   O7        1.0  0.05456674098968505  0.7562567591667174  0.6006383895874023  1.0000
