data_image640
_chemical_formula_structural       BaOBaO4Ti2O
_chemical_formula_sum              "Ba2 O6 Ti2"
_cell_length_a       5.496235653987172
_cell_length_b       5.496499548030315
_cell_length_c       4.774123668670654
_cell_angle_alpha    90.03392122178582
_cell_angle_beta     90.07392564247101
_cell_angle_gamma    90.06882349042455

_space_group_name_H-M_alt    "P 1"
_space_group_IT_number       1

loop_
  _space_group_symop_operation_xyz
  'x, y, z'

loop_
  _atom_site_type_symbol
  _atom_site_label
  _atom_site_symmetry_multiplicity
  _atom_site_fract_x
  _atom_site_fract_y
  _atom_site_fract_z
  _atom_site_occupancy
  Ba  Ba1       1.0  0.7869946956634521  0.8787683844566346  0.8746989369392395  1.0000
  O   O1        1.0  0.03674696758389473  0.12866340577602386  0.457762211561203  1.0000
  Ba  Ba2       1.0  0.28719428181648254  0.3787005543708801  0.8733528852462769  1.0000
  O   O2        1.0  0.5366724729537964  0.128367081284523  0.45741260051727295  1.0000
  O   O3        1.0  0.7868900895118713  0.37847104668617254  0.9993951320648193  1.0000
  O   O4        1.0  0.2867659330368042  0.8784249424934388  1.3682059943676176e-05  1.0000
  O   O5        1.0  0.036703772842884064  0.6284498572349548  0.45784953236579895  1.0000
  Ti  Ti1       1.0  0.7865452766418457  0.37850210070610046  0.37125250697135925  1.0000
  Ti  Ti2       1.0  0.2867450714111328  0.8786707520484924  0.3716573417186737  1.0000
  O   O6        1.0  0.5368503928184509  0.6285050511360168  0.4574676752090454  1.0000
