data_image94
_chemical_formula_structural       BaO2
_chemical_formula_sum              "Ba1 O2"
_cell_length_a       3.8706693255454017
_cell_length_b       3.8703239985498445
_cell_length_c       4.403276443481445
_cell_angle_alpha    116.22901336024024
_cell_angle_beta     116.2048095578694
_cell_angle_gamma    89.90258988905637

_space_group_name_H-M_alt    "P 1"
_space_group_IT_number       1

loop_
  _space_group_symop_operation_xyz
  'x, y, z'

loop_
  _atom_site_type_symbol
  _atom_site_label
  _atom_site_symmetry_multiplicity
  _atom_site_fract_x
  _atom_site_fract_y
  _atom_site_fract_z
  _atom_site_occupancy
  Ba  Ba1       1.0  0.7843318581581116  0.25707322359085083  0.23981565237045288  1.0000
  O   O1        1.0  0.17565077543258667  0.6486046910285951  0.02243088372051716  1.0000
  O   O2        1.0  0.3931414484977722  0.8656599521636963  0.4574514329433441  1.0000
