data_image61
_chemical_formula_structural       BaTiBaTiOBaO2BaOTiO5TiO
_chemical_formula_sum              "Ba4 Ti4 O10"
_cell_length_a       4.037375550197057
_cell_length_b       4.041580321897525
_cell_length_c       16.681543350219727
_cell_angle_alpha    90.03118231754212
_cell_angle_beta     89.98724371133827
_cell_angle_gamma    90.00401182547229

_space_group_name_H-M_alt    "P 1"
_space_group_IT_number       1

loop_
  _space_group_symop_operation_xyz
  'x, y, z'

loop_
  _atom_site_type_symbol
  _atom_site_label
  _atom_site_symmetry_multiplicity
  _atom_site_fract_x
  _atom_site_fract_y
  _atom_site_fract_z
  _atom_site_occupancy
  Ba  Ba1       1.0  0.2967723309993744  0.35235995054244995  0.7891835570335388  1.0000
  Ti  Ti1       1.0  0.796381950378418  0.8510273098945618  0.167180135846138  1.0000
  Ba  Ba2       1.0  0.2962149381637573  0.3512871563434601  0.02894187532365322  1.0000
  Ti  Ti2       1.0  0.7963911890983582  0.8497028350830078  0.4278607964515686  1.0000
  O   O1        1.0  0.7970109581947327  0.3499342203140259  0.41899797320365906  1.0000
  Ba  Ba3       1.0  0.2963730990886688  0.3502081036567688  0.3064991235733032  1.0000
  O   O2        1.0  0.2964891195297241  0.8513152599334717  0.9166783094406128  1.0000
  O   O3        1.0  0.7962976694107056  0.35124289989471436  0.6687127947807312  1.0000
  Ba  Ba4       1.0  0.29658767580986023  0.35017478466033936  0.5488665103912354  1.0000
  O   O4        1.0  0.7964587211608887  0.8497717380523682  0.5429325103759765  1.0000
  Ti  Ti3       1.0  0.7967035174369812  0.8512410521507263  0.6702989339828491  1.0000
  O   O5        1.0  0.29669496417045593  0.8502460718154907  0.41890013217926025  1.0000
  O   O6        1.0  0.796578586101532  0.8525132536888123  0.7930788397789001  1.0000
  O   O7        1.0  0.29676181077957153  0.8515784740447998  0.6687039732933044  1.0000
  O   O8        1.0  0.7964894771575928  0.8500895500183104  0.27929285168647766  1.0000
  O   O9        1.0  0.7969551086425781  0.8514978885650635  0.05530499666929244  1.0000
  Ti  Ti4       1.0  0.7969229221343994  0.8515278697013855  0.9096712470054626  1.0000
  O   O10       1.0  0.7964079976081848  0.3517483174800873  0.91685551404953  1.0000
