data_image414
_chemical_formula_structural       Ba3TiOBaOTiO9Ti
_chemical_formula_sum              "Ba4 Ti3 O11"
_cell_length_a       3.953753106300417
_cell_length_b       3.962236670066509
_cell_length_c       17.87877082824707
_cell_angle_alpha    96.37148972423145
_cell_angle_beta     96.27414569282202
_cell_angle_gamma    90.02147663258326

_space_group_name_H-M_alt    "P 1"
_space_group_IT_number       1

loop_
  _space_group_symop_operation_xyz
  'x, y, z'

loop_
  _atom_site_type_symbol
  _atom_site_label
  _atom_site_symmetry_multiplicity
  _atom_site_fract_x
  _atom_site_fract_y
  _atom_site_fract_z
  _atom_site_occupancy
  Ba  Ba1       1.0  0.7384431958198548  0.5311635136604309  0.14793957769870758  1.0000
  Ba  Ba2       1.0  0.6159115433692933  0.40510818362236023  0.8961320519447327  1.0000
  Ba  Ba3       1.0  0.8557709455490113  0.6476947665214539  0.3817916214466095  1.0000
  Ti  Ti1       1.0  0.17881840467453006  0.9696955680847168  0.025882935151457787  1.0000
  O   O1        1.0  0.12890414893627167  0.9195528030395508  0.9244525432586671  1.0000
  Ba  Ba4       1.0  0.9562038779258729  0.2452642768621445  0.5768381357192993  1.0000
  O   O2        1.0  0.30051752924919134  0.5904868841171265  0.2698996961116791  1.0000
  Ti  Ti2       1.0  0.5134456753730774  0.803604781627655  0.6917300224304199  1.0000
  O   O3        1.0  0.6829446554183961  0.974578857421875  0.03505547344684601  1.0000
  O   O4        1.0  0.18338540196418765  0.47393500804901123  0.03492991626262665  1.0000
  O   O5        1.0  0.24157923460006717  0.03322695195674896  0.15386222302913666  1.0000
  O   O6        1.0  0.8012723922729493  0.09092064946889877  0.26985394954681396  1.0000
  O   O7        1.0  0.0036818629596382384  0.7949808835983276  0.6738262176513672  1.0000
  O   O8        1.0  0.5050739645957947  0.296490877866745  0.6764466166496277  1.0000
  O   O9        1.0  0.5635686516761781  0.8539575934410095  0.7913855314254761  1.0000
  O   O10       1.0  0.44488239288330084  0.7363531589508057  0.558628499507904  1.0000
  O   O11       1.0  0.35573247075080877  0.14667512476444244  0.3807786703109741  1.0000
  Ti  Ti3       1.0  0.2999116778373719  0.09191758185625076  0.27049538493156433  1.0000
