data_image315
_chemical_formula_structural       BaTi2O5Ba2O2
_chemical_formula_sum              "Ba3 Ti2 O7"
_cell_length_a       4.081050230570601
_cell_length_b       4.082700167957134
_cell_length_c       11.076240539550781
_cell_angle_alpha    100.52705169631179
_cell_angle_beta     100.55307512254814
_cell_angle_gamma    90.35825276665454

_space_group_name_H-M_alt    "P 1"
_space_group_IT_number       1

loop_
  _space_group_symop_operation_xyz
  'x, y, z'

loop_
  _atom_site_type_symbol
  _atom_site_label
  _atom_site_symmetry_multiplicity
  _atom_site_fract_x
  _atom_site_fract_y
  _atom_site_fract_z
  _atom_site_occupancy
  Ba  Ba1       1.0  0.14751872420310974  0.7403859496116638  0.3780187666416168  1.0000
  Ti  Ti1       1.0  0.5656478404998779  0.1324453055858612  0.18859706819057465  1.0000
  Ti  Ti2       1.0  0.7566938400268555  0.32119104266166687  0.568265974521637  1.0000
  O   O1        1.0  0.21967972815036774  0.3460387587547302  0.5672908425331116  1.0000
  O   O2        1.0  0.7298678755760193  0.8576790690422058  0.5673384070396423  1.0000
  O   O3        1.0  0.029318876564502716  0.15913693606853485  0.18854117393493652  1.0000
  O   O4        1.0  0.6315729022026062  0.2553045451641083  0.3778948485851288  1.0000
  O   O5        1.0  0.540623128414154  0.6691677570343018  0.1885073333978653  1.0000
  Ba  Ba2       1.0  0.32799869775772095  0.9239042401313782  0.7436732053756714  1.0000
  Ba  Ba3       1.0  0.9621150493621826  0.5606892108917236  0.012533435598015785  1.0000
  O   O6        1.0  0.4472767412662506  0.07149400562047958  0.00655118422582745  1.0000
  O   O7        1.0  0.8177101612091064  0.43896275758743286  0.7498040795326233  1.0000
