data_image335
_chemical_formula_structural       Ba2TiO2BaOTiO3TiO4
_chemical_formula_sum              "Ba3 Ti3 O10"
_cell_length_a       3.8827197661480697
_cell_length_b       6.179743064733742
_cell_length_c       9.735535621643066
_cell_angle_alpha    102.70419477314549
_cell_angle_beta     89.76580215220876
_cell_angle_gamma    89.8353266397168

_space_group_name_H-M_alt    "P 1"
_space_group_IT_number       1

loop_
  _space_group_symop_operation_xyz
  'x, y, z'

loop_
  _atom_site_type_symbol
  _atom_site_label
  _atom_site_symmetry_multiplicity
  _atom_site_fract_x
  _atom_site_fract_y
  _atom_site_fract_z
  _atom_site_occupancy
  Ba  Ba1       1.0  0.3909428119659423  0.8327612280845642  0.16640780866146088  1.0000
  Ba  Ba2       1.0  0.39052394032478327  0.5082669854164124  0.5055105090141296  1.0000
  Ti  Ti1       1.0  0.890893518924713  0.3349643349647522  0.1972096562385559  1.0000
  O   O1        1.0  0.390782743692398  0.9503104686737062  0.4725586175918579  1.0000
  O   O2        1.0  0.890643537044525  0.26302212476730347  0.6172531247138977  1.0000
  Ba  Ba3       1.0  0.3895913660526275  0.15474249422550201  0.8127813935279846  1.0000
  O   O3        1.0  0.8903232812881469  0.11466416716575624  0.31768935918807983  1.0000
  Ti  Ti2       1.0  0.8897162675857543  0.7003363370895386  0.8154349327087402  1.0000
  O   O4        1.0  0.8916892409324645  0.52542382478714  0.062100436538457884  1.0000
  O   O5        1.0  0.8902318477630614  0.8113043308258058  0.6441414952278137  1.0000
  O   O6        1.0  0.3896620571613311  0.6474314332008363  0.7955388426780701  1.0000
  Ti  Ti3       1.0  0.8904858231544494  0.002747675403952599  0.4941085875034332  1.0000
  O   O7        1.0  0.8894752860069274  0.9401121139526367  0.9549235105514526  1.0000
  O   O8        1.0  0.8907015323638915  0.5945208072662355  0.32480892539024353  1.0000
  O   O9        1.0  0.8893651962280272  0.44294112920761114  0.9085417985916138  1.0000
  O   O10       1.0  0.39065593481063837  0.2790117561817169  0.15942829847335815  1.0000
