data_image375
_chemical_formula_structural       TiBaO2
_chemical_formula_sum              "Ti1 Ba1 O2"
_cell_length_a       3.3093013990149025
_cell_length_b       3.311795531824783
_cell_length_c       6.322269916534424
_cell_angle_alpha    74.84072586046484
_cell_angle_beta     74.83409956089213
_cell_angle_gamma    59.99922283923565

_space_group_name_H-M_alt    "P 1"
_space_group_IT_number       1

loop_
  _space_group_symop_operation_xyz
  'x, y, z'

loop_
  _atom_site_type_symbol
  _atom_site_label
  _atom_site_symmetry_multiplicity
  _atom_site_fract_x
  _atom_site_fract_y
  _atom_site_fract_z
  _atom_site_occupancy
  Ti  Ti1       1.0  0.42659232020378113  0.23188292980194092  0.7814608216285706  1.0000
  Ba  Ba1       1.0  0.9262732863426207  0.7315151691436769  0.2817194163799286  1.0000
  O   O1        1.0  0.7032588124275208  0.5091381072998047  0.9498692154884338  1.0000
  O   O2        1.0  0.1489391177892684  0.9546767473220826  0.6135250926017761  1.0000
