data_image733
_chemical_formula_structural       BaOBaOTiO
_chemical_formula_sum              "Ba2 O3 Ti1"
_cell_length_a       3.966628863224539
_cell_length_b       4.036918646909832
_cell_length_c       7.376589775085449
_cell_angle_alpha    105.84432771743498
_cell_angle_beta     105.59867862264994
_cell_angle_gamma    90.03945994729641

_space_group_name_H-M_alt    "P 1"
_space_group_IT_number       1

loop_
  _space_group_symop_operation_xyz
  'x, y, z'

loop_
  _atom_site_type_symbol
  _atom_site_label
  _atom_site_symmetry_multiplicity
  _atom_site_fract_x
  _atom_site_fract_y
  _atom_site_fract_z
  _atom_site_occupancy
  Ba  Ba1       1.0  0.5799509286880493  0.08923463523387909  0.361321359872818  1.0000
  O   O1        1.0  0.07962211221456528  0.5886237025260924  0.3604077994823456  1.0000
  Ba  Ba2       1.0  0.2879652678966522  0.7966052293777466  0.7769284844398499  1.0000
  O   O2        1.0  0.7883833050727844  0.2968631684780121  0.7780981659889221  1.0000
  Ti  Ti1       1.0  0.9342139363288879  0.44284570217132563  0.06934059411287308  1.0000
  O   O3        1.0  0.9341912269592285  0.941999077796936  0.06907810270786285  1.0000
