data_image440
_chemical_formula_structural       OTiOBaTiBaO4
_chemical_formula_sum              "O6 Ti2 Ba2"
_cell_length_a       4.0357607230904
_cell_length_b       6.245659508198346
_cell_length_c       7.987152099609375
_cell_angle_alpha    112.46766365959877
_cell_angle_beta     89.9544724599762
_cell_angle_gamma    89.99188823975003

_space_group_name_H-M_alt    "P 1"
_space_group_IT_number       1

loop_
  _space_group_symop_operation_xyz
  'x, y, z'

loop_
  _atom_site_type_symbol
  _atom_site_label
  _atom_site_symmetry_multiplicity
  _atom_site_fract_x
  _atom_site_fract_y
  _atom_site_fract_z
  _atom_site_occupancy
  O   O1        1.0  0.26842260360717773  0.7134406566619873  0.28109914064407354  1.0000
  Ti  Ti1       1.0  0.7680364847183228  0.2419647127389908  0.8017110228538514  1.0000
  O   O2        1.0  0.26848065853118896  0.2625401914119721  0.28213310241699224  1.0000
  Ba  Ba1       1.0  0.2680749297142029  0.6503792405128479  0.6120357513427735  1.0000
  Ti  Ti2       1.0  0.26859933137893677  0.41479033231735235  0.1340403258800507  1.0000
  Ba  Ba2       1.0  0.7684252858161926  0.00825074315071106  0.3239963650703431  1.0000
  O   O3        1.0  0.7679463624954224  0.9434385299682618  0.653142809867859  1.0000
  O   O4        1.0  0.7682598829269409  0.3855766952037812  0.07282939553260806  1.0000
  O   O5        1.0  0.7679723501205444  0.3958564102649689  0.6549099087715151  1.0000
  O   O6        1.0  0.268146276473999  0.2696142196655274  0.8627139925956727  1.0000
