data_image413
_chemical_formula_structural       BaTiBaO3BaO2
_chemical_formula_sum              "Ba3 Ti1 O5"
_cell_length_a       3.9736005204054026
_cell_length_b       6.1879848386108876
_cell_length_c       7.305915832519531
_cell_angle_alpha    115.08229420300165
_cell_angle_beta     105.77827114412031
_cell_angle_gamma    89.97699840572307

_space_group_name_H-M_alt    "P 1"
_space_group_IT_number       1

loop_
  _space_group_symop_operation_xyz
  'x, y, z'

loop_
  _atom_site_type_symbol
  _atom_site_label
  _atom_site_symmetry_multiplicity
  _atom_site_fract_x
  _atom_site_fract_y
  _atom_site_fract_z
  _atom_site_occupancy
  Ba  Ba1       1.0  0.7929679155349733  0.962205708026886  0.22521740198135384  1.0000
  Ti  Ti1       1.0  0.08141256868839265  0.7507462501525879  0.8023716807365419  1.0000
  Ba  Ba2       1.0  0.5819032788276673  0.2511245012283325  0.8028696179389955  1.0000
  O   O1        1.0  0.1977644115686417  0.637927234172821  0.03417076542973522  1.0000
  O   O2        1.0  0.581623673439026  0.7507604360580445  0.8025292158126832  1.0000
  O   O3        1.0  0.19726632535457614  0.0955550968647003  0.033473595976829536  1.0000
  Ba  Ba3       1.0  0.3701985180377961  0.5398558378219604  0.37970197200775146  1.0000
  O   O4        1.0  0.9663652777671815  0.40612196922302246  0.5717491507530212  1.0000
  O   O5        1.0  0.9658894538879396  0.864130437374115  0.5711045861244202  1.0000
