data_image591
_chemical_formula_structural       OBaOBaOBaTiBaO2BaTiO4
_chemical_formula_sum              "O9 Ba5 Ti2"
_cell_length_a       4.088432394117221
_cell_length_b       4.085404703312303
_cell_length_c       17.234228134155273
_cell_angle_alpha    96.81304140217817
_cell_angle_beta     96.79858819232903
_cell_angle_gamma    90.10903283489706

_space_group_name_H-M_alt    "P 1"
_space_group_IT_number       1

loop_
  _space_group_symop_operation_xyz
  'x, y, z'

loop_
  _atom_site_type_symbol
  _atom_site_label
  _atom_site_symmetry_multiplicity
  _atom_site_fract_x
  _atom_site_fract_y
  _atom_site_fract_z
  _atom_site_occupancy
  O   O1        1.0  0.6555173397064209  0.794950008392334  0.14872416853904724  1.0000
  Ba  Ba1       1.0  0.4040011763572693  0.04163161292672157  0.6450027823448181  1.0000
  O   O2        1.0  0.5945253372192383  0.23313282430171967  0.026435986161231995  1.0000
  Ba  Ba2       1.0  0.0983773022890091  0.736863374710083  0.03491872549057007  1.0000
  O   O3        1.0  0.2691781222820282  0.4070914685726166  0.37408727407455444  1.0000
  Ba  Ba3       1.0  0.8085275292396545  0.44781133532524103  0.4541071057319641  1.0000
  Ti  Ti1       1.0  0.9580110907554626  0.5964149832725525  0.7534627318382263  1.0000
  Ba  Ba4       1.0  0.5139299035072327  0.1523570120334625  0.8642403483390808  1.0000
  O   O4        1.0  0.15566076338291168  0.29426074028015137  0.14869722723960876  1.0000
  O   O5        1.0  0.9572609066963196  0.09539470821619032  0.7524334192276001  1.0000
  Ba  Ba5       1.0  0.22115473449230194  0.8598443269729614  0.27878066897392273  1.0000
  Ti  Ti2       1.0  0.6504856944084167  0.28838223218917847  0.1374291181564331  1.0000
  O   O6        1.0  0.4574606120586395  0.5957438349723816  0.752513587474823  1.0000
  O   O7        1.0  0.8975136876106262  0.534237802028656  0.6315310001373291  1.0000
  O   O8        1.0  0.017423931509256363  0.655906081199646  0.8721684217453003  1.0000
  O   O9        1.0  0.7679760456085205  0.90774005651474  0.3735739290714264  1.0000
