data_image679
_chemical_formula_structural       BaO2
_chemical_formula_sum              "Ba1 O2"
_cell_length_a       4.403308086712568
_cell_length_b       4.4058545917603675
_cell_length_c       4.409811019897461
_cell_angle_alpha    60.30156789401171
_cell_angle_beta     60.32708729548682
_cell_angle_gamma    60.31252514515671

_space_group_name_H-M_alt    "P 1"
_space_group_IT_number       1

loop_
  _space_group_symop_operation_xyz
  'x, y, z'

loop_
  _atom_site_type_symbol
  _atom_site_label
  _atom_site_symmetry_multiplicity
  _atom_site_fract_x
  _atom_site_fract_y
  _atom_site_fract_z
  _atom_site_occupancy
  Ba  Ba1       1.0  0.6341609358787537  0.5324258804321289  0.5308993458747865  1.0000
  O   O1        1.0  0.3841920495033264  0.2827690541744232  0.28095743060112005  1.0000
  O   O2        1.0  0.883870840072632  0.7824908494949341  0.780958890914917  1.0000
