data_image483
_chemical_formula_structural       TiBaOBaOTiO4
_chemical_formula_sum              "Ti2 Ba2 O6"
_cell_length_a       4.204056264624783
_cell_length_b       5.66586808971484
_cell_length_c       5.666130542755127
_cell_angle_alpha    90.04457632174936
_cell_angle_beta     90.00160759902444
_cell_angle_gamma    90.0073039770824

_space_group_name_H-M_alt    "P 1"
_space_group_IT_number       1

loop_
  _space_group_symop_operation_xyz
  'x, y, z'

loop_
  _atom_site_type_symbol
  _atom_site_label
  _atom_site_symmetry_multiplicity
  _atom_site_fract_x
  _atom_site_fract_y
  _atom_site_fract_z
  _atom_site_occupancy
  Ti  Ti1       1.0  0.7656921744346619  0.6583660840988159  0.7797353863716125  1.0000
  Ba  Ba1       1.0  0.2829657196998596  0.6578118205070496  0.2797721028327942  1.0000
  O   O1        1.0  0.3367806077003479  0.6580280661582948  0.7795330286026001  1.0000
  Ba  Ba2       1.0  0.28379911184310913  0.15820159018039703  0.779550313949585  1.0000
  O   O2        1.0  0.8163937926292419  0.9075323343276979  0.5297386646270752  1.0000
  Ti  Ti2       1.0  0.7654595971107483  0.15835748612880707  0.27925392985343933  1.0000
  O   O3        1.0  0.8162676692008972  0.4077860713005066  0.5292046666145325  1.0000
  O   O4        1.0  0.8155807852745056  0.4074799716472626  0.029978621751070023  1.0000
  O   O5        1.0  0.3364422917366028  0.15779368579387668  0.2796332836151123  1.0000
  O   O6        1.0  0.8158657550811768  0.9077531695365906  0.029560398310422897  1.0000
