data_image938
_chemical_formula_structural       OBa2TiOTiO2Ti2OBaO2TiO5
_chemical_formula_sum              "O12 Ba3 Ti5"
_cell_length_a       4.181205488106692
_cell_length_b       8.016921160430096
_cell_length_c       8.019087791442871
_cell_angle_alpha    90.00979016547929
_cell_angle_beta     89.83032010699127
_cell_angle_gamma    90.32178638095512

_space_group_name_H-M_alt    "P 1"
_space_group_IT_number       1

loop_
  _space_group_symop_operation_xyz
  'x, y, z'

loop_
  _atom_site_type_symbol
  _atom_site_label
  _atom_site_symmetry_multiplicity
  _atom_site_fract_x
  _atom_site_fract_y
  _atom_site_fract_z
  _atom_site_occupancy
  O   O1        1.0  0.5901286005973816  0.8828799128532409  0.19297032058238983  1.0000
  Ba  Ba1       1.0  0.6235177516937256  0.6358478665351868  0.446228951215744  1.0000
  Ba  Ba2       1.0  0.622786283493042  0.13576138019561768  0.9464015364646912  1.0000
  Ti  Ti1       1.0  0.16100169718265533  0.8803748488426208  0.7022944092750549  1.0000
  O   O2        1.0  0.5894131064414978  0.39092132449150085  0.7002807259559631  1.0000
  Ti  Ti2       1.0  0.16086842119693756  0.8801668286323546  0.18981483578681946  1.0000
  O   O3        1.0  0.09984500706195831  0.898372709751129  0.4467085301876068  1.0000
  O   O4        1.0  0.10069934278726578  0.3760471045970916  0.44742467999458313  1.0000
  Ti  Ti3       1.0  0.16000494360923767  0.3935104310512543  0.7033829092979431  1.0000
  Ti  Ti4       1.0  0.0337531641125679  0.13613730669021606  0.4468512237071991  1.0000
  O   O5        1.0  0.10927162319421768  0.8925608992576599  0.9459922909736633  1.0000
  Ba  Ba3       1.0  0.6267725229263306  0.6377099752426147  0.9458103775978088  1.0000
  O   O6        1.0  0.0998726338148117  0.13668881356716156  0.6844161152839661  1.0000
  O   O7        1.0  0.11441044509410858  0.6357418298721313  0.20136894285678864  1.0000
  Ti  Ti5       1.0  0.0769525095820427  0.3935593366622924  0.1885661631822586  1.0000
  O   O8        1.0  0.10201914608478546  0.136142760515213  0.2080482393503189  1.0000
  O   O9        1.0  0.10904529690742493  0.6363805532455443  0.6911855936050415  1.0000
  O   O10       1.0  0.11438579112291336  0.38107994198799133  0.9465829133987427  1.0000
  O   O11       1.0  0.5893876552581787  0.8823671936988831  0.6991455554962158  1.0000
  O   O12       1.0  0.6357142329216003  0.39079514145851135  0.19196589291095734  1.0000
