data_image461
_chemical_formula_structural       TiBaOTiOBaO2TiOTiO5
_chemical_formula_sum              "Ti4 Ba2 O10"
_cell_length_a       3.8094854725793823
_cell_length_b       6.353892215742004
_cell_length_c       9.571840286254883
_cell_angle_alpha    96.22189513832778
_cell_angle_beta     89.99200435274187
_cell_angle_gamma    89.93960997541377

_space_group_name_H-M_alt    "P 1"
_space_group_IT_number       1

loop_
  _space_group_symop_operation_xyz
  'x, y, z'

loop_
  _atom_site_type_symbol
  _atom_site_label
  _atom_site_symmetry_multiplicity
  _atom_site_fract_x
  _atom_site_fract_y
  _atom_site_fract_z
  _atom_site_occupancy
  Ti  Ti1       1.0  0.6729077100753784  0.2226710468530655  0.15821483731269836  1.0000
  Ba  Ba1       1.0  0.17283545434474945  0.2918457090854645  0.8489068746566772  1.0000
  O   O1        1.0  0.6727816462516785  0.1632653623819351  0.603335440158844  1.0000
  Ti  Ti2       1.0  0.6732885837554932  0.8484053015708922  0.6929550170898438  1.0000
  O   O2        1.0  0.6730914115905762  0.90253746509552  0.17995525896549225  1.0000
  Ba  Ba2       1.0  0.17252619564533234  0.9483569860458374  0.38950055837631226  1.0000
  O   O3        1.0  0.672861635684967  0.7022073864936829  0.4917645752429962  1.0000
  O   O4        1.0  0.17316387593746185  0.702567458152771  0.9796320199966431  1.0000
  Ti  Ti3       1.0  0.6721504926681519  0.4244330823421478  0.5362446904182434  1.0000
  O   O5        1.0  0.6734061241149902  0.9740828871726989  0.8890376091003418  1.0000
  Ti  Ti4       1.0  0.6725326180458069  0.7457607984542847  0.011228581890463829  1.0000
  O   O6        1.0  0.1728953719139099  0.8924518823623656  0.6768203377723694  1.0000
  O   O7        1.0  0.6722437143325806  0.2961386442184448  0.3476736843585968  1.0000
  O   O8        1.0  0.17256039381027222  0.19039388000965118  0.13262571394443512  1.0000
  O   O9        1.0  0.673277735710144  0.5612064003944397  0.7306644320487976  1.0000
  O   O10       1.0  0.6729117035865784  0.445178359746933  0.04262315109372139  1.0000
