data_image691
_chemical_formula_structural       BaO2BaTiO3TiO
_chemical_formula_sum              "Ba2 O6 Ti2"
_cell_length_a       4.274692690036504
_cell_length_b       5.642454178145208
_cell_length_c       5.640021324157715
_cell_angle_alpha    90.0973053759376
_cell_angle_beta     89.96885684030065
_cell_angle_gamma    90.01034341033038

_space_group_name_H-M_alt    "P 1"
_space_group_IT_number       1

loop_
  _space_group_symop_operation_xyz
  'x, y, z'

loop_
  _atom_site_type_symbol
  _atom_site_label
  _atom_site_symmetry_multiplicity
  _atom_site_fract_x
  _atom_site_fract_y
  _atom_site_fract_z
  _atom_site_occupancy
  Ba  Ba1       1.0  0.34819385409355164  0.8734095096588135  0.12536443769931793  1.0000
  O   O1        1.0  0.8882949948310852  0.6239162683486938  0.37600508332252497  1.0000
  O   O2        1.0  0.4119237959384918  0.8741812705993652  0.6260396838188171  1.0000
  Ba  Ba2       1.0  0.3479520082473755  0.3743285834789276  0.6258342862129211  1.0000
  Ti  Ti1       1.0  0.8296875357627869  0.3737289011478424  0.1256391853094101  1.0000
  O   O3        1.0  0.4116150736808777  0.37399306893348694  0.12592634558677673  1.0000
  O   O4        1.0  0.8884592056274414  0.1244296208024025  0.3758076131343841  1.0000
  O   O5        1.0  0.8878681659698486  0.6243219971656799  0.8755900263786315  1.0000
  Ti  Ti2       1.0  0.8290051221847534  0.8738284707069397  0.6254456639289856  1.0000
  O   O6        1.0  0.8890029191970825  0.12406521290540695  0.8760212063789367  1.0000
