data_image562
_chemical_formula_structural       BaTi2O5
_chemical_formula_sum              "Ba1 Ti2 O5"
_cell_length_a       5.327936358165453
_cell_length_b       5.521938228429825
_cell_length_c       5.41091775894165
_cell_angle_alpha    91.20472490868202
_cell_angle_beta     119.91808151918362
_cell_angle_gamma    89.75715518696715

_space_group_name_H-M_alt    "P 1"
_space_group_IT_number       1

loop_
  _space_group_symop_operation_xyz
  'x, y, z'

loop_
  _atom_site_type_symbol
  _atom_site_label
  _atom_site_symmetry_multiplicity
  _atom_site_fract_x
  _atom_site_fract_y
  _atom_site_fract_z
  _atom_site_occupancy
  Ba  Ba1       1.0  0.39063775539398193  0.1944759041070938  0.3813714385032654  1.0000
  Ti  Ti1       1.0  0.7805637121200562  0.7509491443634033  0.9795129895210266  1.0000
  Ti  Ti2       1.0  0.9988740086555481  0.7461842894554138  0.5872850418090821  1.0000
  O   O1        1.0  0.3891901969909668  0.8326147198677063  0.7452746033668518  1.0000
  O   O2        1.0  0.7949129939079285  0.5380300283432007  0.6955046057701112  1.0000
  O   O3        1.0  0.796174943447113  0.9599686861038208  0.30469936132431036  1.0000
  O   O4        1.0  0.9909048080444336  0.5413736701011658  0.2897498309612275  1.0000
  O   O5        1.0  0.9769071936607361  0.9646385312080383  0.8948619365692139  1.0000
