data_image619
_chemical_formula_structural       OTiOBa
_chemical_formula_sum              "O2 Ti1 Ba1"
_cell_length_a       3.3074420422239568
_cell_length_b       3.307936941195937
_cell_length_c       6.275068283081055
_cell_angle_alpha    74.72616822956724
_cell_angle_beta     74.73655760956022
_cell_angle_gamma    60.0781211930555

_space_group_name_H-M_alt    "P 1"
_space_group_IT_number       1

loop_
  _space_group_symop_operation_xyz
  'x, y, z'

loop_
  _atom_site_type_symbol
  _atom_site_label
  _atom_site_symmetry_multiplicity
  _atom_site_fract_x
  _atom_site_fract_y
  _atom_site_fract_z
  _atom_site_occupancy
  O   O1        1.0  0.5318690538406372  0.18268334865570066  0.933411419391632  1.0000
  Ti  Ti1       1.0  0.2543387711048126  0.9061324596405029  0.7650835514068604  1.0000
  O   O2        1.0  0.9774681329727171  0.6272770762443542  0.5975870490074158  1.0000
  Ba  Ba1       1.0  0.7549368739128113  0.40518239140510565  0.26579293608665466  1.0000
