data_image446
_chemical_formula_structural       TiO2Ba2O4TiBa2O2Ba2O2
_chemical_formula_sum              "Ti2 O10 Ba6"
_cell_length_a       6.3585322607062995
_cell_length_b       8.155964820651226
_cell_length_c       8.150190353393555
_cell_angle_alpha    120.02170972989794
_cell_angle_beta     90.01785661957419
_cell_angle_gamma    90.00109533463362

_space_group_name_H-M_alt    "P 1"
_space_group_IT_number       1

loop_
  _space_group_symop_operation_xyz
  'x, y, z'

loop_
  _atom_site_type_symbol
  _atom_site_label
  _atom_site_symmetry_multiplicity
  _atom_site_fract_x
  _atom_site_fract_y
  _atom_site_fract_z
  _atom_site_occupancy
  Ti  Ti1       1.0  0.4500162899494171  0.01516273058950901  0.16490840911865234  1.0000
  O   O1        1.0  0.5483707785606384  0.8934889435768126  0.2871450781822204  1.0000
  O   O2        1.0  0.7307119965553284  0.6817006468772888  0.49829038977622986  1.0000
  Ba  Ba1       1.0  0.9715483784675598  0.8382254242897034  0.8120788335800171  1.0000
  Ba  Ba2       1.0  0.9712727665901184  0.36763313412666315  0.3416594266891479  1.0000
  O   O3        1.0  0.5466667413711548  0.8934243917465209  0.9204113483428954  1.0000
  O   O4        1.0  0.2997611165046692  0.3482834696769714  0.8312496542930603  1.0000
  O   O5        1.0  0.16223202645778656  0.014989466406404972  0.1649428755044937  1.0000
  O   O6        1.0  0.23086395859718323  0.6821342706680298  0.4984206259250641  1.0000
  Ti  Ti2       1.0  0.011973226442933083  0.34831479191780085  0.8318467140197754  1.0000
  Ba  Ba3       1.0  0.4904407560825348  0.5250392556190491  0.1841983795166015  1.0000
  Ba  Ba4       1.0  0.49067431688308716  0.5252384543418884  0.654927670955658  1.0000
  O   O7        1.0  0.5463777184486389  0.25947123765945435  0.28651291131973267  1.0000
  O   O8        1.0  0.9149956107139587  0.46986526250839233  0.07578290998935697  1.0000
  Ba  Ba5       1.0  0.9710182547569275  0.8381067514419556  0.34110149741172785  1.0000
  Ba  Ba6       1.0  0.49030983448028564  0.9956355690956116  0.6546925902366638  1.0000
  O   O9        1.0  0.915334165096283  0.10440358519554138  0.7098165154457092  1.0000
  O   O10       1.0  0.9142045378684998  0.47069963812828064  0.7095198035240173  1.0000
