data_image548
_chemical_formula_structural       Ba3TiO2
_chemical_formula_sum              "Ba3 Ti1 O2"
_cell_length_a       4.081548144241446
_cell_length_b       4.086797228346612
_cell_length_c       11.330409049987793
_cell_angle_alpha    89.97258612617655
_cell_angle_beta     89.92238423339111
_cell_angle_gamma    90.00709907093868

_space_group_name_H-M_alt    "P 1"
_space_group_IT_number       1

loop_
  _space_group_symop_operation_xyz
  'x, y, z'

loop_
  _atom_site_type_symbol
  _atom_site_label
  _atom_site_symmetry_multiplicity
  _atom_site_fract_x
  _atom_site_fract_y
  _atom_site_fract_z
  _atom_site_occupancy
  Ba  Ba1       1.0  0.8537029027938843  0.43062123656272894  0.15302710235118866  1.0000
  Ba  Ba2       1.0  0.35363173484802246  0.930319905281067  0.4852156341075897  1.0000
  Ba  Ba3       1.0  0.8531686663627625  0.43024981021881104  0.817441999912262  1.0000
  Ti  Ti1       1.0  0.3532155454158783  0.9302385449409485  0.9849457740783691  1.0000
  O   O1        1.0  0.853074312210083  0.9306631684303285  0.9853292107582092  1.0000
  O   O2        1.0  0.3532187044620514  0.4302346706390381  0.984932541847229  1.0000
