data_image245
_chemical_formula_structural       OBaTiOBaO2
_chemical_formula_sum              "O4 Ba2 Ti1"
_cell_length_a       4.030790329517953
_cell_length_b       4.033599235866701
_cell_length_c       7.312193393707275
_cell_angle_alpha    106.11964515388843
_cell_angle_beta     106.12169312888628
_cell_angle_gamma    90.09051612848744

_space_group_name_H-M_alt    "P 1"
_space_group_IT_number       1

loop_
  _space_group_symop_operation_xyz
  'x, y, z'

loop_
  _atom_site_type_symbol
  _atom_site_label
  _atom_site_symmetry_multiplicity
  _atom_site_fract_x
  _atom_site_fract_y
  _atom_site_fract_z
  _atom_site_occupancy
  O   O1        1.0  0.15071922540664673  0.7319144606590271  0.999207377433777  1.0000
  Ba  Ba1       1.0  0.3590355813503266  0.9401479363441466  0.41728672385215765  1.0000
  Ti  Ti1       1.0  0.002837777137756348  0.5839544534683228  0.7038532495498657  1.0000
  O   O2        1.0  0.8545756936073304  0.43556109070777893  0.4078218936920166  1.0000
  Ba  Ba2       1.0  0.6465269327163696  0.2276361882686615  0.9903386235237123  1.0000
  O   O3        1.0  0.003082675859332085  0.08389537781476974  0.7037355303764343  1.0000
  O   O4        1.0  0.5027841925621033  0.5838866829872131  0.7036716341972351  1.0000
