data_image864
_chemical_formula_structural       TiOBaO
_chemical_formula_sum              "Ti1 O2 Ba1"
_cell_length_a       3.310823374823843
_cell_length_b       3.312383573010996
_cell_length_c       6.305581569671631
_cell_angle_alpha    74.79418439594706
_cell_angle_beta     74.79968863641159
_cell_angle_gamma    60.02879236122787

_space_group_name_H-M_alt    "P 1"
_space_group_IT_number       1

loop_
  _space_group_symop_operation_xyz
  'x, y, z'

loop_
  _atom_site_type_symbol
  _atom_site_label
  _atom_site_symmetry_multiplicity
  _atom_site_fract_x
  _atom_site_fract_y
  _atom_site_fract_z
  _atom_site_occupancy
  Ti  Ti1       1.0  0.16275402903556824  0.6080598831176758  0.2599409222602844  1.0000
  O   O1        1.0  0.4393982589244843  0.8851850628852844  0.42813169956207275  1.0000
  Ba  Ba1       1.0  0.6619472503662109  0.10781484097242355  0.7603206634521483  1.0000
  O   O2        1.0  0.8845454454421998  0.3307076394557953  0.0923738107085228  1.0000
