data_image513
_chemical_formula_structural       OTiO
_chemical_formula_sum              "O2 Ti1"
_cell_length_a       3.4355261139785966
_cell_length_b       3.4367157624601954
_cell_length_c       3.4385910034179688
_cell_angle_alpha    59.6560285271517
_cell_angle_beta     59.65275598017008
_cell_angle_gamma    59.745458353681705

_space_group_name_H-M_alt    "P 1"
_space_group_IT_number       1

loop_
  _space_group_symop_operation_xyz
  'x, y, z'

loop_
  _atom_site_type_symbol
  _atom_site_label
  _atom_site_symmetry_multiplicity
  _atom_site_fract_x
  _atom_site_fract_y
  _atom_site_fract_z
  _atom_site_occupancy
  O   O1        1.0  0.6285340189933777  0.19080767035484314  0.9756202697753905  1.0000
  Ti  Ti1       1.0  0.8782504796981812  0.44153773784637457  0.22491802275180814  1.0000
  O   O2        1.0  0.1282021254301071  0.6906511783599854  0.4757493138313293  1.0000
