data_image153
_chemical_formula_structural       O2BaOTiO3BaOTiBa
_chemical_formula_sum              "O7 Ba3 Ti2"
_cell_length_a       4.085075745313229
_cell_length_b       4.084805704655183
_cell_length_c       11.1015625
_cell_angle_alpha    100.51841990913638
_cell_angle_beta     100.52976366725461
_cell_angle_gamma    89.76270115964033

_space_group_name_H-M_alt    "P 1"
_space_group_IT_number       1

loop_
  _space_group_symop_operation_xyz
  'x, y, z'

loop_
  _atom_site_type_symbol
  _atom_site_label
  _atom_site_symmetry_multiplicity
  _atom_site_fract_x
  _atom_site_fract_y
  _atom_site_fract_z
  _atom_site_occupancy
  O   O1        1.0  0.18099914491176605  0.4038166105747223  0.7862341403961182  1.0000
  O   O2        1.0  0.9929095506668091  0.21572118997573853  0.40896281599998474  1.0000
  Ba  Ba1       1.0  0.9255322217941284  0.6368209719657898  0.23140312731266022  1.0000
  O   O3        1.0  0.5953811407089233  0.30721276998519903  0.5972463488578796  1.0000
  Ti  Ti1       1.0  0.7181766033172607  0.4302838146686554  0.7871320843696594  1.0000
  O   O4        1.0  0.6922192573547363  0.893283784389496  0.7862330079078674  1.0000
  O   O5        1.0  0.5034598708152771  0.7046117186546327  0.40875476598739624  1.0000
  O   O6        1.0  0.4107310473918915  0.12210457026958466  0.22611114382743835  1.0000
  Ba  Ba2       1.0  0.10922663658857346  0.8210164904594421  0.5972068309783936  1.0000
  O   O7        1.0  0.7813743948936462  0.493726521730423  0.9692749381065369  1.0000
  Ti  Ti2       1.0  0.5269201993942261  0.23955829441547394  0.4063366949558258  1.0000
  Ba  Ba3       1.0  0.29104161262512207  0.0035144337452948093  0.9631466269493103  1.0000
