data_image899
_chemical_formula_structural       BaTiO2
_chemical_formula_sum              "Ba1 Ti1 O2"
_cell_length_a       3.2744808386239663
_cell_length_b       3.27138920925539
_cell_length_c       6.5330305099487305
_cell_angle_alpha    75.4303479789396
_cell_angle_beta     75.44786680188868
_cell_angle_gamma    59.87937151506261

_space_group_name_H-M_alt    "P 1"
_space_group_IT_number       1

loop_
  _space_group_symop_operation_xyz
  'x, y, z'

loop_
  _atom_site_type_symbol
  _atom_site_label
  _atom_site_symmetry_multiplicity
  _atom_site_fract_x
  _atom_site_fract_y
  _atom_site_fract_z
  _atom_site_occupancy
  Ba  Ba1       1.0  0.828485667705536  0.06294393539428711  0.2756010591983795  1.0000
  Ti  Ti1       1.0  0.002365530002862215  0.23813223838806152  0.7549852132797242  1.0000
  O   O1        1.0  0.38990247249603277  0.6250689625740051  0.5919861197471619  1.0000
  O   O2        1.0  0.612669050693512  0.8480123281478882  0.9240194559097291  1.0000
