data_image631
_chemical_formula_structural       BaO2BaTi2O2
_chemical_formula_sum              "Ba2 O4 Ti2"
_cell_length_a       3.815822090213254
_cell_length_b       3.7769753365336807
_cell_length_c       10.867653846740723
_cell_angle_alpha    90.02702273251427
_cell_angle_beta     90.17523783508518
_cell_angle_gamma    90.02829998134922

_space_group_name_H-M_alt    "P 1"
_space_group_IT_number       1

loop_
  _space_group_symop_operation_xyz
  'x, y, z'

loop_
  _atom_site_type_symbol
  _atom_site_label
  _atom_site_symmetry_multiplicity
  _atom_site_fract_x
  _atom_site_fract_y
  _atom_site_fract_z
  _atom_site_occupancy
  Ba  Ba1       1.0  0.064461849629879  0.18965309858322146  0.6176545023918152  1.0000
  O   O1        1.0  0.06354186683893204  0.6900057792663574  0.3103478252887726  1.0000
  O   O2        1.0  0.5630888938903809  0.18858911097049713  0.3025578558444977  1.0000
  Ba  Ba2       1.0  0.5616854429244995  0.6896194219589233  0.9957335591316223  1.0000
  Ti  Ti1       1.0  0.5638787746429443  0.6899160146713257  0.3678745925426483  1.0000
  Ti  Ti2       1.0  0.06251101195812225  0.1886149048805237  0.24529269337654114  1.0000
  O   O3        1.0  0.5654500126838684  0.6894124150276184  0.5447280406951904  1.0000
  O   O4        1.0  0.06120499223470688  0.19003158807754517  0.06839237362146378  1.0000
