data_image377
_chemical_formula_structural       Ba3O2TiO2TiO2TiBaO3
_chemical_formula_sum              "Ba4 O9 Ti3"
_cell_length_a       4.005274992804413
_cell_length_b       4.007751645579699
_cell_length_c       16.077035903930664
_cell_angle_alpha    90.03282156290634
_cell_angle_beta     90.01899726303688
_cell_angle_gamma    89.99513940954697

_space_group_name_H-M_alt    "P 1"
_space_group_IT_number       1

loop_
  _space_group_symop_operation_xyz
  'x, y, z'

loop_
  _atom_site_type_symbol
  _atom_site_label
  _atom_site_symmetry_multiplicity
  _atom_site_fract_x
  _atom_site_fract_y
  _atom_site_fract_z
  _atom_site_occupancy
  Ba  Ba1       1.0  0.41427573561668396  0.4321863055229187  0.2826958894729614  1.0000
  Ba  Ba2       1.0  0.4147574305534363  0.43284478783607483  0.5353817939758301  1.0000
  Ba  Ba3       1.0  0.9157028198242188  0.9328395128250122  0.9729558825492859  1.0000
  O   O1        1.0  0.9138628840446472  0.43279361724853516  0.6663674116134644  1.0000
  O   O2        1.0  0.9144575595855713  0.932738721370697  0.8015631437301636  1.0000
  Ti  Ti1       1.0  0.9144228100776672  0.9328866004943848  0.6639717817306519  1.0000
  O   O3        1.0  0.9149479866027832  0.4321540594100952  0.1474384069442749  1.0000
  O   O4        1.0  0.4153174161911011  0.9322308897972107  0.14753039181232452  1.0000
  Ti  Ti2       1.0  0.9136951565742493  0.9315857291221619  0.16232305765151978  1.0000
  O   O5        1.0  0.41508620977401733  0.9326840043067932  0.40887451171875  1.0000
  O   O6        1.0  0.9148634672164917  0.9330626130104065  0.538307249546051  1.0000
  Ti  Ti3       1.0  0.915268063545227  0.9330646991729736  0.4121708273887634  1.0000
  Ba  Ba4       1.0  0.41446453332901  0.4328949451446533  0.7830374240875244  1.0000
  O   O7        1.0  0.4142124056816101  0.9328530430793762  0.6665030121803284  1.0000
  O   O8        1.0  0.9153980016708374  0.4326643645763397  0.40962889790534973  1.0000
  O   O9        1.0  0.9152036905288696  0.9323902130126953  0.2801368534564972  1.0000
