data_image509
_chemical_formula_structural       OTiBaO5Ti
_chemical_formula_sum              "O6 Ti2 Ba1"
_cell_length_a       5.347649788187659
_cell_length_b       5.4331193338986115
_cell_length_c       5.443183898925781
_cell_angle_alpha    89.74700548183296
_cell_angle_beta     119.59853835531324
_cell_angle_gamma    90.49293726338549

_space_group_name_H-M_alt    "P 1"
_space_group_IT_number       1

loop_
  _space_group_symop_operation_xyz
  'x, y, z'

loop_
  _atom_site_type_symbol
  _atom_site_label
  _atom_site_symmetry_multiplicity
  _atom_site_fract_x
  _atom_site_fract_y
  _atom_site_fract_z
  _atom_site_occupancy
  O   O1        1.0  0.9568401575088501  0.8849765658378601  0.5784455537796019  1.0000
  Ti  Ti1       1.0  0.8717511892318726  0.09226138144731522  0.8077366948127747  1.0000
  Ba  Ba1       1.0  0.5520015954971313  0.5941877365112305  0.16749627888202662  1.0000
  O   O2        1.0  0.959716260433197  0.2725887596607208  0.16781483590602875  1.0000
  O   O3        1.0  0.1420861929655075  0.9165880680084229  0.16749438643455505  1.0000
  O   O4        1.0  0.5476842522621155  0.8847556710243225  0.7566866874694824  1.0000
  O   O5        1.0  0.5548933744430542  0.3031938076019287  0.5779843330383301  1.0000
  O   O6        1.0  0.14641760289669037  0.3037228286266327  0.7564368844032288  1.0000
  Ti  Ti2       1.0  0.23136313259601593  0.0957169234752655  0.5266711711883545  1.0000
