data_image1096
_chemical_formula_structural       OBaOTi
_chemical_formula_sum              "O2 Ba1 Ti1"
_cell_length_a       3.274839293547296
_cell_length_b       3.2767651772252107
_cell_length_c       6.499773979187012
_cell_angle_alpha    75.35468330707592
_cell_angle_beta     75.37925758382559
_cell_angle_gamma    59.96218438150706

_space_group_name_H-M_alt    "P 1"
_space_group_IT_number       1

loop_
  _space_group_symop_operation_xyz
  'x, y, z'

loop_
  _atom_site_type_symbol
  _atom_site_label
  _atom_site_symmetry_multiplicity
  _atom_site_fract_x
  _atom_site_fract_y
  _atom_site_fract_z
  _atom_site_occupancy
  O   O1        1.0  0.6117297410964966  0.9857155084609985  0.8725823163986207  1.0000
  Ba  Ba1       1.0  0.051346633583307266  0.424909383058548  0.55450838804245  1.0000
  O   O2        1.0  0.8363461494445801  0.2101830542087555  0.1987396478652954  1.0000
  Ti  Ti1       1.0  0.22467547655105588  0.5978699326515198  0.03577880188822746  1.0000
