data_image496
_chemical_formula_structural       BaTi2O4BaO2
_chemical_formula_sum              "Ba2 Ti2 O6"
_cell_length_a       4.240571529318226
_cell_length_b       5.661370910249937
_cell_length_c       5.660407066345215
_cell_angle_alpha    90.02709103257966
_cell_angle_beta     89.92284184983754
_cell_angle_gamma    89.94568883789235

_space_group_name_H-M_alt    "P 1"
_space_group_IT_number       1

loop_
  _space_group_symop_operation_xyz
  'x, y, z'

loop_
  _atom_site_type_symbol
  _atom_site_label
  _atom_site_symmetry_multiplicity
  _atom_site_fract_x
  _atom_site_fract_y
  _atom_site_fract_z
  _atom_site_occupancy
  Ba  Ba1       1.0  0.7432887554168701  0.9192433953285218  0.5026558637619019  1.0000
  Ti  Ti1       1.0  0.2620256543159485  0.4188972413539887  0.5028019547462463  1.0000
  Ti  Ti2       1.0  0.2614884078502655  0.9193568825721742  0.002282877452671528  1.0000
  O   O1        1.0  0.2077893763780594  0.17068810760974887  0.7541385293006897  1.0000
  O   O2        1.0  0.686567485332489  0.4202085435390473  0.5022724270820618  1.0000
  O   O3        1.0  0.20798560976982117  0.6688121557235718  0.2510380744934082  1.0000
  O   O4        1.0  0.6862753629684448  0.9199312925338745  0.0022008419036865234  1.0000
  Ba  Ba2       1.0  0.7436808347702026  0.42030435800552374  0.002421259880065918  1.0000
  O   O5        1.0  0.20758827030658722  0.6717965006828308  0.7513865828514099  1.0000
  O   O6        1.0  0.20820429921150208  0.1689931005239487  0.2545291781425476  1.0000
