data_image646
_chemical_formula_structural       Ba2O2Ti2OBaO4
_chemical_formula_sum              "Ba3 O7 Ti2"
_cell_length_a       4.076316219213401
_cell_length_b       4.075077732637327
_cell_length_c       11.090057373046875
_cell_angle_alpha    100.5383352009697
_cell_angle_beta     100.46281447956241
_cell_angle_gamma    90.00992690739417

_space_group_name_H-M_alt    "P 1"
_space_group_IT_number       1

loop_
  _space_group_symop_operation_xyz
  'x, y, z'

loop_
  _atom_site_type_symbol
  _atom_site_label
  _atom_site_symmetry_multiplicity
  _atom_site_fract_x
  _atom_site_fract_y
  _atom_site_fract_z
  _atom_site_occupancy
  Ba  Ba1       1.0  0.799437940120697  0.432269960641861  0.9068096280097961  1.0000
  Ba  Ba2       1.0  0.17587728798389435  0.7983173727989197  0.6379203200340271  1.0000
  O   O1        1.0  0.5788446068763733  0.731120765209198  0.4617924094200134  1.0000
  O   O2        1.0  0.06860649585723877  0.2191094011068344  0.46188533306121826  1.0000
  Ti  Ti1       1.0  0.601836621761322  0.19443461298942566  0.462505042552948  1.0000
  Ti  Ti2       1.0  0.3749825954437256  0.006433520000427961  0.08296927809715271  1.0000
  O   O3        1.0  0.30833032727241516  0.9425661563873292  0.9018872380256653  1.0000
  Ba  Ba3       1.0  0.9874392747879028  0.613764762878418  0.2723805010318756  1.0000
  O   O4        1.0  0.39701420068740845  0.5419676899909973  0.08290938287973404  1.0000
  O   O5        1.0  0.6670699715614319  0.3126859664916992  0.642690122127533  1.0000
  O   O6        1.0  0.9060384035110474  0.03141649067401887  0.08273706585168839  1.0000
  O   O7        1.0  0.48740896582603455  0.12708885967731476  0.27254000306129456  1.0000
