data_image179
_chemical_formula_structural       TiBaTi2OTiO2BaOBaO2BaO4
_chemical_formula_sum              "Ti4 Ba4 O10"
_cell_length_a       5.834163268377778
_cell_length_b       5.844175258622929
_cell_length_c       9.001763343811035
_cell_angle_alpha    108.94069024250003
_cell_angle_beta     108.92618847313418
_cell_angle_gamma    90.00518654029281

_space_group_name_H-M_alt    "P 1"
_space_group_IT_number       1

loop_
  _space_group_symop_operation_xyz
  'x, y, z'

loop_
  _atom_site_type_symbol
  _atom_site_label
  _atom_site_symmetry_multiplicity
  _atom_site_fract_x
  _atom_site_fract_y
  _atom_site_fract_z
  _atom_site_occupancy
  Ti  Ti1       1.0  0.6752163171768188  0.8110432028770447  0.2601990103721619  1.0000
  Ba  Ba1       1.0  0.8076181411743164  0.4757932126522064  0.5239512324333191  1.0000
  Ti  Ti2       1.0  0.9250221848487854  0.09695090353488924  0.7604026198387146  1.0000
  Ti  Ti3       1.0  0.17577791213989258  0.3837693929672241  0.26055091619491577  1.0000
  O   O1        1.0  0.55706387758255  0.7474977970123291  0.02228674478828912  1.0000
  Ti  Ti4       1.0  0.4259569048881531  0.5968636870384216  0.7606902718544006  1.0000
  O   O2        1.0  0.6792121529579163  0.35035067796707153  0.7675081491470337  1.0000
  O   O3        1.0  0.7943572402000427  0.9878263473510742  0.4982433021068573  1.0000
  Ba  Ba2       1.0  0.5439608097076416  0.21249189972877502  0.996930718421936  1.0000
  O   O4        1.0  0.9253683686256409  0.5967919230461121  0.2607669532299042  1.0000
  Ba  Ba3       1.0  0.30711594223976135  0.981444239616394  0.5241983532905579  1.0000
  O   O5        1.0  0.4255698621273041  0.5980923771858215  0.2603856325149536  1.0000
  O   O6        1.0  0.1793762445449829  0.35031628608703613  0.767407238483429  1.0000
  Ba  Ba4       1.0  0.04397899657487869  0.7178086638450623  0.9966651201248169  1.0000
  O   O7        1.0  0.17246325314044952  0.8431249260902405  0.7536693811416626  1.0000
  O   O8        1.0  0.29469725489616394  0.4446562826633454  0.49770253896713257  1.0000
  O   O9        1.0  0.672221839427948  0.8434649109840393  0.7540130615234375  1.0000
  O   O10       1.0  0.05669378861784935  0.20752912759780884  0.022720597684383406  1.0000
