data_image1019
_chemical_formula_structural       BaOBaTiO2
_chemical_formula_sum              "Ba2 O3 Ti1"
_cell_length_a       3.710319873184951
_cell_length_b       3.9370887986774608
_cell_length_c       9.692323684692383
_cell_angle_alpha    101.70669410476664
_cell_angle_beta     101.17338663864642
_cell_angle_gamma    89.99331595107762

_space_group_name_H-M_alt    "P 1"
_space_group_IT_number       1

loop_
  _space_group_symop_operation_xyz
  'x, y, z'

loop_
  _atom_site_type_symbol
  _atom_site_label
  _atom_site_symmetry_multiplicity
  _atom_site_fract_x
  _atom_site_fract_y
  _atom_site_fract_z
  _atom_site_occupancy
  Ba  Ba1       1.0  0.9195327162742615  0.8375028371810913  0.7569518089294434  1.0000
  O   O1        1.0  0.5416018962860107  0.9609965085983276  0.0029383499640971422  1.0000
  Ba  Ba2       1.0  0.16575153172016144  0.08607861399650574  0.25002023577690125  1.0000
  Ti  Ti1       1.0  0.5427418351173401  0.46125632524490356  0.003204469569027424  1.0000
  O   O2        1.0  0.43929585814476013  0.35788589715957636  0.7965507507324219  1.0000
  O   O3        1.0  0.6436477303504944  0.5645232796669005  0.2102356255054474  1.0000
