data_image322
_chemical_formula_structural       TiBa2OBaO5Ti
_chemical_formula_sum              "Ti2 Ba3 O6"
_cell_length_a       4.026075841978316
_cell_length_b       4.025736435988818
_cell_length_c       11.260798454284668
_cell_angle_alpha    100.2929128991032
_cell_angle_beta     100.31680528316613
_cell_angle_gamma    90.02855974451329

_space_group_name_H-M_alt    "P 1"
_space_group_IT_number       1

loop_
  _space_group_symop_operation_xyz
  'x, y, z'

loop_
  _atom_site_type_symbol
  _atom_site_label
  _atom_site_symmetry_multiplicity
  _atom_site_fract_x
  _atom_site_fract_y
  _atom_site_fract_z
  _atom_site_occupancy
  Ti  Ti1       1.0  0.2823164165019989  0.9514279961585999  0.7675050497055054  1.0000
  Ba  Ba1       1.0  0.06451210379600525  0.733348548412323  0.3322734236717224  1.0000
  Ba  Ba2       1.0  0.6983121633529663  0.36779966950416565  0.601457953453064  1.0000
  O   O1        1.0  0.19216357171535492  0.8612365722656251  0.5881181359291077  1.0000
  Ba  Ba3       1.0  0.8813785910606384  0.5504712462425233  0.9665502309799194  1.0000
  O   O2        1.0  0.9737104773521424  0.14278784394264224  0.15129593014717102  1.0000
  O   O3        1.0  0.47340819239616394  0.642382562160492  0.15105755627155304  1.0000
  O   O4        1.0  0.5715933442115784  0.24053919315338138  0.3462350070476532  1.0000
  O   O5        1.0  0.2898837924003601  0.45923110842704773  0.7822572588920593  1.0000
  O   O6        1.0  0.7897877097129822  0.9586631059646608  0.7821672558784485  1.0000
  Ti  Ti2       1.0  0.48118123412132263  0.1502756178379059  0.16623102128505707  1.0000
