data_image960
_chemical_formula_structural       BaO2TiOTiBaO5Ba
_chemical_formula_sum              "Ba3 O8 Ti2"
_cell_length_a       5.774903515344585
_cell_length_b       6.355371404040183
_cell_length_c       6.467794418334961
_cell_angle_alpha    72.92806039337229
_cell_angle_beta     68.1412454624387
_cell_angle_gamma    71.40851299869331

_space_group_name_H-M_alt    "P 1"
_space_group_IT_number       1

loop_
  _space_group_symop_operation_xyz
  'x, y, z'

loop_
  _atom_site_type_symbol
  _atom_site_label
  _atom_site_symmetry_multiplicity
  _atom_site_fract_x
  _atom_site_fract_y
  _atom_site_fract_z
  _atom_site_occupancy
  Ba  Ba1       1.0  0.3168070912361145  0.14591927826404572  0.21578459441661837  1.0000
  O   O1        1.0  0.6500959992408752  0.9500420093536377  0.8419811725616456  1.0000
  O   O2        1.0  0.30338165163993835  0.24708296358585355  0.5988699793815613  1.0000
  Ti  Ti1       1.0  0.7401188611984254  0.9900372028350829  0.5256443619728088  1.0000
  O   O3        1.0  0.7780919075012207  0.3268463909626007  0.45716151595115667  1.0000
  Ti  Ti2       1.0  0.4522548317909241  0.5302852392196654  0.4619374871253968  1.0000
  Ba  Ba2       1.0  0.13806970417499545  0.8450899720191954  0.907881259918213  1.0000
  O   O4        1.0  0.5579675436019897  0.7893463969230652  0.5079373121261597  1.0000
  O   O5        1.0  0.2897141575813294  0.44315817952156067  0.8121631741523744  1.0000
  O   O6        1.0  0.4223523437976837  0.5608009099960327  0.18637727200984955  1.0000
  O   O7        1.0  0.8238841891288757  0.11553579568862915  0.18896076083183289  1.0000
  O   O8        1.0  0.06718816608190536  0.8071632385253906  0.5071913003921509  1.0000
  Ba  Ba3       1.0  0.8102908730506897  0.46158403158187866  0.8131860494613649  1.0000
