data_image214
_chemical_formula_structural       BaOTiO
_chemical_formula_sum              "Ba1 O2 Ti1"
_cell_length_a       3.271900695779989
_cell_length_b       3.2672445639916377
_cell_length_c       6.528433322906494
_cell_angle_alpha    75.48137536905178
_cell_angle_beta     75.47126004536008
_cell_angle_gamma    59.95989591509908

_space_group_name_H-M_alt    "P 1"
_space_group_IT_number       1

loop_
  _space_group_symop_operation_xyz
  'x, y, z'

loop_
  _atom_site_type_symbol
  _atom_site_label
  _atom_site_symmetry_multiplicity
  _atom_site_fract_x
  _atom_site_fract_y
  _atom_site_fract_z
  _atom_site_occupancy
  Ba  Ba1       1.0  0.7450695037841797  0.6574394702911377  0.47580617666244507  1.0000
  O   O1        1.0  0.30795595049858093  0.21967063844203946  0.7929853200912476  1.0000
  Ti  Ti1       1.0  0.9194478988647461  0.8309503197669983  0.9567481875419617  1.0000
  O   O2        1.0  0.530971884727478  0.4431147575378418  0.12325529754161836  1.0000
