data_image831
_chemical_formula_structural       OTiBaO
_chemical_formula_sum              "O2 Ti1 Ba1"
_cell_length_a       3.309562869504283
_cell_length_b       3.312264219614708
_cell_length_c       6.304358959197998
_cell_angle_alpha    74.80750948527825
_cell_angle_beta     74.7955014156996
_cell_angle_gamma    60.03875733466083

_space_group_name_H-M_alt    "P 1"
_space_group_IT_number       1

loop_
  _space_group_symop_operation_xyz
  'x, y, z'

loop_
  _atom_site_type_symbol
  _atom_site_label
  _atom_site_symmetry_multiplicity
  _atom_site_fract_x
  _atom_site_fract_y
  _atom_site_fract_z
  _atom_site_occupancy
  O   O1        1.0  0.22572097182273862  0.35333597660064703  0.3880332410335541  1.0000
  Ti  Ti1       1.0  0.5033343434333801  0.6311470866203308  0.5544582605361938  1.0000
  Ba  Ba1       1.0  0.003173520788550377  0.13133741915225983  0.0542866550385952  1.0000
  O   O2        1.0  0.7813596725463867  0.9095532298088074  0.7205443382263184  1.0000
