data_image594
_chemical_formula_structural       Ba2TiO4BaO
_chemical_formula_sum              "Ba3 Ti1 O5"
_cell_length_a       3.9767115681219063
_cell_length_b       6.187702875065165
_cell_length_c       7.324124813079834
_cell_angle_alpha    114.92309394880301
_cell_angle_beta     105.7706140285189
_cell_angle_gamma    89.95491734310949

_space_group_name_H-M_alt    "P 1"
_space_group_IT_number       1

loop_
  _space_group_symop_operation_xyz
  'x, y, z'

loop_
  _atom_site_type_symbol
  _atom_site_label
  _atom_site_symmetry_multiplicity
  _atom_site_fract_x
  _atom_site_fract_y
  _atom_site_fract_z
  _atom_site_occupancy
  Ba  Ba1       1.0  0.28050428628921514  0.41438606381416326  0.9233692288398744  1.0000
  Ba  Ba2       1.0  0.06907860189676286  0.7028681635856628  0.5003645420074463  1.0000
  Ti  Ti1       1.0  0.5682855248451234  0.20249837636947632  0.4998623728752137  1.0000
  O   O1        1.0  0.06850074976682664  0.20264029502868655  0.49973550438880926  1.0000
  O   O2        1.0  0.6847183704376222  0.5478408336639404  0.7309603095054628  1.0000
  O   O3        1.0  0.6844416856765748  0.08919087052345277  0.7315252423286439  1.0000
  O   O4        1.0  0.4530062377452851  0.316307008266449  0.26823216676712036  1.0000
  Ba  Ba3       1.0  0.8571189641952516  0.9906804561614991  0.07688810676336295  1.0000
  O   O5        1.0  0.4529145956039429  0.8578736782073975  0.2683936655521393  1.0000
