data_image82
_chemical_formula_structural       OBa2O2Ti
_chemical_formula_sum              "O3 Ba2 Ti1"
_cell_length_a       3.9735630648261564
_cell_length_b       4.047359508040306
_cell_length_c       7.394968509674072
_cell_angle_alpha    105.70120516297378
_cell_angle_beta     105.535793453727
_cell_angle_gamma    89.96473801491385

_space_group_name_H-M_alt    "P 1"
_space_group_IT_number       1

loop_
  _space_group_symop_operation_xyz
  'x, y, z'

loop_
  _atom_site_type_symbol
  _atom_site_label
  _atom_site_symmetry_multiplicity
  _atom_site_fract_x
  _atom_site_fract_y
  _atom_site_fract_z
  _atom_site_occupancy
  O   O1        1.0  0.5756086707115173  0.20325598120689395  0.2814614176750183  1.0000
  Ba  Ba1       1.0  0.7834779024124146  0.4101964235305786  0.6978861689567566  1.0000
  Ba  Ba2       1.0  0.07628948986530304  0.7048914432525635  0.2830786406993866  1.0000
  O   O2        1.0  0.28422483801841736  0.9114230275154115  0.6984838247299194  1.0000
  O   O3        1.0  0.430277019739151  0.5572620630264282  0.9904659390449523  1.0000
  Ti  Ti1       1.0  0.42949581146240234  0.057575300335884094  0.9905325174331664  1.0000
