data_image781
_chemical_formula_structural       Ti2OBa2TiOTiO4
_chemical_formula_sum              "Ti4 O6 Ba2"
_cell_length_a       4.058398679007505
_cell_length_b       6.960447568910394
_cell_length_c       6.810356616973877
_cell_angle_alpha    71.74886167200293
_cell_angle_beta     89.92700826852982
_cell_angle_gamma    89.80172895205585

_space_group_name_H-M_alt    "P 1"
_space_group_IT_number       1

loop_
  _space_group_symop_operation_xyz
  'x, y, z'

loop_
  _atom_site_type_symbol
  _atom_site_label
  _atom_site_symmetry_multiplicity
  _atom_site_fract_x
  _atom_site_fract_y
  _atom_site_fract_z
  _atom_site_occupancy
  Ti  Ti1       1.0  0.04205281287431717  0.26734966039657587  0.29132819175720215  1.0000
  Ti  Ti2       1.0  0.5431549549102783  0.1433962881565094  0.6229790449142457  1.0000
  O   O1        1.0  0.5423989295959473  0.9912050962448119  0.9422299265861513  1.0000
  Ba  Ba1       1.0  0.5419629812240601  0.7782877087593079  0.36479267477989197  1.0000
  Ba  Ba2       1.0  0.042733170092105865  0.7539485096931456  0.9119431376457214  1.0000
  Ti  Ti3       1.0  0.5440943241119385  0.26450917124748224  0.9861409068107606  1.0000
  O   O2        1.0  0.04282620921730995  0.5406653881072998  0.33373177051544195  1.0000
  Ti  Ti4       1.0  0.04270102083683014  0.39016067981719965  0.6518898010253906  1.0000
  O   O3        1.0  0.04265636205673218  0.10213777422904967  0.6036658883094788  1.0000
  O   O4        1.0  0.04212705045938492  0.33129832148551935  0.9717485904693604  1.0000
  O   O5        1.0  0.5430645942687988  0.20076835155487058  0.3043382465839386  1.0000
  O   O6        1.0  0.5427312254905701  0.42925214767456055  0.6730583310127258  1.0000
