data_image793
_chemical_formula_structural       BaTiBaO6BaTiBaO2
_chemical_formula_sum              "Ba4 Ti2 O8"
_cell_length_a       4.050423145296334
_cell_length_b       4.05005742409788
_cell_length_c       13.500106811523438
_cell_angle_alpha    89.99542627804254
_cell_angle_beta     89.9999410327813
_cell_angle_gamma    89.91534914150385

_space_group_name_H-M_alt    "P 1"
_space_group_IT_number       1

loop_
  _space_group_symop_operation_xyz
  'x, y, z'

loop_
  _atom_site_type_symbol
  _atom_site_label
  _atom_site_symmetry_multiplicity
  _atom_site_fract_x
  _atom_site_fract_y
  _atom_site_fract_z
  _atom_site_occupancy
  Ba  Ba1       1.0  0.15096168220043182  0.1648731678724289  0.11530587077140807  1.0000
  Ti  Ti1       1.0  0.15025369822978973  0.1646745502948761  0.7593697905540465  1.0000
  Ba  Ba2       1.0  0.6506231427192688  0.6649646162986755  0.6149643659591675  1.0000
  O   O1        1.0  0.6512758731842041  0.16521355509757996  0.2592918276786804  1.0000
  O   O2        1.0  0.15066419541835785  0.6651286482810974  0.25969502329826355  1.0000
  O   O3        1.0  0.6503497362136841  0.16465212404727936  0.7587945461273192  1.0000
  O   O4        1.0  0.1509779691696167  0.16478654742240906  0.9082144498825072  1.0000
  O   O5        1.0  0.15067708492279053  0.6651868224143982  0.7589538097381591  1.0000
  O   O6        1.0  0.650719940662384  0.6653932929039001  0.4077265560626983  1.0000
  Ba  Ba3       1.0  0.6509717702865601  0.664893627166748  0.9031994938850402  1.0000
  Ti  Ti2       1.0  0.6513873338699341  0.6655369400978088  0.25919973850250244  1.0000
  Ba  Ba4       1.0  0.1510573774576187  0.16506719589233398  0.40269228816032404  1.0000
  O   O7        1.0  0.15071360766887665  0.16496187448501587  0.6096051335334778  1.0000
  O   O8        1.0  0.6508077383041382  0.6646896004676819  0.1114160194993019  1.0000
