data_image259
_chemical_formula_structural       TiBaO3
_chemical_formula_sum              "Ti1 Ba1 O3"
_cell_length_a       3.963732737734398
_cell_length_b       4.143540688470743
_cell_length_c       4.143285751342773
_cell_angle_alpha    89.5101003911768
_cell_angle_beta     90.0055076372487
_cell_angle_gamma    90.01449616730633

_space_group_name_H-M_alt    "P 1"
_space_group_IT_number       1

loop_
  _space_group_symop_operation_xyz
  'x, y, z'

loop_
  _atom_site_type_symbol
  _atom_site_label
  _atom_site_symmetry_multiplicity
  _atom_site_fract_x
  _atom_site_fract_y
  _atom_site_fract_z
  _atom_site_occupancy
  Ti  Ti1       1.0  0.9567710161209106  0.4919680953025818  0.09406501799821854  1.0000
  Ba  Ba1       1.0  0.4574654996395111  0.010389998555183412  0.6152405738830566  1.0000
  O   O1        1.0  0.4573734998703003  0.5378454923629761  0.1424662172794342  1.0000
  O   O2        1.0  0.9573237895965576  0.5258046388626099  0.652106761932373  1.0000
  O   O3        1.0  0.9573999643325806  0.047191739082336426  0.1307438462972641  1.0000
