data_image325
_chemical_formula_structural       OTiO2BaOBa2TiOBa3O4TiO
_chemical_formula_sum              "O10 Ti3 Ba6"
_cell_length_a       6.588515928931647
_cell_length_b       6.329506631159885
_cell_length_c       10.554346084594727
_cell_angle_alpha    87.51114321586707
_cell_angle_beta     71.47549724266645
_cell_angle_gamma    70.67685719227845

_space_group_name_H-M_alt    "P 1"
_space_group_IT_number       1

loop_
  _space_group_symop_operation_xyz
  'x, y, z'

loop_
  _atom_site_type_symbol
  _atom_site_label
  _atom_site_symmetry_multiplicity
  _atom_site_fract_x
  _atom_site_fract_y
  _atom_site_fract_z
  _atom_site_occupancy
  O   O1        1.0  0.606764554977417  0.6818808317184449  0.2790099084377289  1.0000
  Ti  Ti1       1.0  0.7001928687095642  0.39550149440765386  0.36027756333351135  1.0000
  O   O2        1.0  0.6097699403762817  0.26385653018951416  0.8338131904602051  1.0000
  O   O3        1.0  0.14203089475631714  0.8527010679244996  0.49754121899604803  1.0000
  Ba  Ba1       1.0  0.2936144471168518  0.11858482658863069  0.2489506155252457  1.0000
  O   O4        1.0  0.7959449291229248  0.4381793141365052  0.5021136403083801  1.0000
  Ba  Ba2       1.0  0.04238905385136604  0.21363429725170135  0.6513267159461975  1.0000
  Ba  Ba3       1.0  0.7312757968902588  0.892767608165741  0.47126209735870367  1.0000
  Ti  Ti2       1.0  0.31651666760444636  0.6172423958778381  0.37113896012306213  1.0000
  O   O5        1.0  0.4043659269809723  0.34352195262908936  0.4575774967670441  1.0000
  Ba  Ba4       1.0  0.018718831241130794  0.7843860387802125  0.08737102895975113  1.0000
  Ba  Ba5       1.0  0.672103762626648  0.476188212633133  0.02434954792261126  1.0000
  Ba  Ba6       1.0  0.3755505681037903  0.5799528956413269  0.6939665079116821  1.0000
  O   O6        1.0  0.1168306320905685  0.3645382225513459  0.8859077692031861  1.0000
  O   O7        1.0  0.3839149475097656  0.9168549180030823  0.004798554815351985  1.0000
  O   O8        1.0  0.4299096763134003  0.9706757664680482  0.7091600298881531  1.0000
  O   O9        1.0  0.8662198185920715  0.15424065291881564  0.23795130848884585  1.0000
  Ti  Ti3       1.0  0.3930114805698395  0.11723174154758455  0.8665323853492737  1.0000
  O   O10       1.0  0.23518347740173334  0.5599250793457031  0.22621448338031772  1.0000
