data_image1044
_chemical_formula_structural       Ba2OTiO5Ti
_chemical_formula_sum              "Ba2 O6 Ti2"
_cell_length_a       5.091072226201101
_cell_length_b       5.860962308855466
_cell_length_c       5.858414649963379
_cell_angle_alpha    120.22850038351032
_cell_angle_beta     90.09044102937042
_cell_angle_gamma    90.06842734958268

_space_group_name_H-M_alt    "P 1"
_space_group_IT_number       1

loop_
  _space_group_symop_operation_xyz
  'x, y, z'

loop_
  _atom_site_type_symbol
  _atom_site_label
  _atom_site_symmetry_multiplicity
  _atom_site_fract_x
  _atom_site_fract_y
  _atom_site_fract_z
  _atom_site_occupancy
  Ba  Ba1       1.0  0.9667080640792847  0.7684783935546875  0.7874309420585632  1.0000
  Ba  Ba2       1.0  0.4666529595851898  0.4364761412143708  0.12096582353115086  1.0000
  O   O1        1.0  0.46758905053138733  0.9530348181724548  0.15541724860668182  1.0000
  Ti  Ti1       1.0  0.7164947390556335  0.1023067906498909  0.45414742827415466  1.0000
  O   O2        1.0  0.46666085720062256  0.4013208746910095  0.6037444472312927  1.0000
  O   O3        1.0  0.46736714243888855  0.9532232284545898  0.6035385727882385  1.0000
  O   O4        1.0  0.9674849510192871  0.8035158514976503  0.30469110608100897  1.0000
  O   O5        1.0  0.9667519927024841  0.2518656253814697  0.7528316974639893  1.0000
  O   O6        1.0  0.9672415256500244  0.25150486826896673  0.3048459589481354  1.0000
  Ti  Ti2       1.0  0.21752087771892548  0.1022101566195488  0.45430275797843933  1.0000
