data_image166
_chemical_formula_structural       TiOTiOBaO3BaO
_chemical_formula_sum              "Ti2 O6 Ba2"
_cell_length_a       4.277624608258185
_cell_length_b       5.641463103882566
_cell_length_c       5.643918514251709
_cell_angle_alpha    90.05069617045226
_cell_angle_beta     90.00134122161685
_cell_angle_gamma    90.01334186451646

_space_group_name_H-M_alt    "P 1"
_space_group_IT_number       1

loop_
  _space_group_symop_operation_xyz
  'x, y, z'

loop_
  _atom_site_type_symbol
  _atom_site_label
  _atom_site_symmetry_multiplicity
  _atom_site_fract_x
  _atom_site_fract_y
  _atom_site_fract_z
  _atom_site_occupancy
  Ti  Ti1       1.0  0.8491541743278503  0.5088517665863036  0.15802915394306183  1.0000
  O   O1        1.0  0.26768821477890015  0.509405255317688  0.15854106843471527  1.0000
  Ti  Ti2       1.0  0.8506152033805847  0.008679769933223724  0.6578767895698547  1.0000
  O   O2        1.0  0.7915430068969727  0.7587954998016357  0.40849706530570984  1.0000
  Ba  Ba1       1.0  0.33157193660736084  0.5090507864952086  0.6583279371261597  1.0000
  O   O3        1.0  0.7918412685394287  0.7587389349937439  0.9085199236869812  1.0000
  O   O4        1.0  0.7912338376045227  0.25964802503585815  0.9080684185028076  1.0000
  O   O5        1.0  0.7910027503967285  0.2593822777271271  0.4086158871650696  1.0000
  Ba  Ba2       1.0  0.3302995264530182  0.009118366986513138  0.15819649398326874  1.0000
  O   O6        1.0  0.26724880933761597  0.00933311693370342  0.6584082841873169  1.0000
