data_image170
_chemical_formula_structural       OBaTiBaOTiO4
_chemical_formula_sum              "O6 Ba2 Ti2"
_cell_length_a       5.622895908724735
_cell_length_b       4.422195716616707
_cell_length_c       5.621296405792236
_cell_angle_alpha    89.9175962706959
_cell_angle_beta     89.91362110684888
_cell_angle_gamma    89.88404639122854

_space_group_name_H-M_alt    "P 1"
_space_group_IT_number       1

loop_
  _space_group_symop_operation_xyz
  'x, y, z'

loop_
  _atom_site_type_symbol
  _atom_site_label
  _atom_site_symmetry_multiplicity
  _atom_site_fract_x
  _atom_site_fract_y
  _atom_site_fract_z
  _atom_site_occupancy
  O   O1        1.0  0.4487278163433075  0.4748384356498718  0.08023720979690552  1.0000
  Ba  Ba1       1.0  0.6985085010528564  0.024028634652495384  0.830895721912384  1.0000
  Ti  Ti1       1.0  0.6980935335159302  0.5408130288124084  0.3311406373977661  1.0000
  Ba  Ba2       1.0  0.19882112741470337  0.02392064779996872  0.3297681212425232  1.0000
  O   O2        1.0  0.9484399557113647  0.47461917996406555  0.07994614541530609  1.0000
  Ti  Ti2       1.0  0.1984986662864685  0.5418485999107361  0.830131471157074  1.0000
  O   O3        1.0  0.4479769468307495  0.47549054026603704  0.5799459218978882  1.0000
  O   O4        1.0  0.9484606981277466  0.47587141394615173  0.5808042287826538  1.0000
  O   O5        1.0  0.1981731355190277  0.9458024501800537  0.8304023146629333  1.0000
  O   O6        1.0  0.6984207034111023  0.9461826086044313  0.33012303709983826  1.0000
