data_image862
_chemical_formula_structural       BaOTiBaTiO7
_chemical_formula_sum              "Ba2 O8 Ti2"
_cell_length_a       3.9071118266099445
_cell_length_b       3.9041939768355767
_cell_length_c       12.702999114990234
_cell_angle_alpha    89.96300337278413
_cell_angle_beta     89.96117287955317
_cell_angle_gamma    89.94831163369265

_space_group_name_H-M_alt    "P 1"
_space_group_IT_number       1

loop_
  _space_group_symop_operation_xyz
  'x, y, z'

loop_
  _atom_site_type_symbol
  _atom_site_label
  _atom_site_symmetry_multiplicity
  _atom_site_fract_x
  _atom_site_fract_y
  _atom_site_fract_z
  _atom_site_occupancy
  Ba  Ba1       1.0  0.01746358722448349  0.07904212921857834  0.4915702939033509  1.0000
  O   O1        1.0  0.517069399356842  0.07917694002389908  0.8980804681777955  1.0000
  Ti  Ti1       1.0  0.5177946090698242  0.5794620513916016  0.31341850757598877  1.0000
  Ba  Ba2       1.0  0.5173132419586182  0.5796820521354675  0.7425497770309449  1.0000
  Ti  Ti2       1.0  0.01729668863117695  0.08018416911363602  0.9224743247032167  1.0000
  O   O2        1.0  0.01690664514899254  0.5795736312866211  0.8986162543296815  1.0000
  O   O3        1.0  0.01824931055307388  0.08079594373703003  0.06270633637905121  1.0000
  O   O4        1.0  0.018092378973960873  0.5792407393455505  0.33608409762382513  1.0000
  O   O5        1.0  0.01703842356801033  0.07902218401432037  0.7181832194328309  1.0000
  O   O6        1.0  0.5182928442955017  0.079696461558342  0.33615547418594366  1.0000
  O   O7        1.0  0.5177183151245117  0.579734742641449  0.5140281319618225  1.0000
  O   O8        1.0  0.5174375772476196  0.5811006426811218  0.17510062456130984  1.0000
