data_image475
_chemical_formula_structural       Ba2TiO3TiOBaO3
_chemical_formula_sum              "Ba3 Ti2 O7"
_cell_length_a       3.9810671981374277
_cell_length_b       4.049364661680274
_cell_length_c       11.560300827026367
_cell_angle_alpha    100.011925563693
_cell_angle_beta     89.99462714555847
_cell_angle_gamma    89.94062766723458

_space_group_name_H-M_alt    "P 1"
_space_group_IT_number       1

loop_
  _space_group_symop_operation_xyz
  'x, y, z'

loop_
  _atom_site_type_symbol
  _atom_site_label
  _atom_site_symmetry_multiplicity
  _atom_site_fract_x
  _atom_site_fract_y
  _atom_site_fract_z
  _atom_site_occupancy
  Ba  Ba1       1.0  0.7098175883293151  0.947233498096466  0.7120521664619446  1.0000
  Ba  Ba2       1.0  0.7084839940071105  0.5991944670677185  0.014735257253050806  1.0000
  Ti  Ti1       1.0  0.20830602943897245  0.1812864392995834  0.18037714064121246  1.0000
  O   O1        1.0  0.20949988067150113  0.4502470195293426  0.7177991271018982  1.0000
  O   O2        1.0  0.20869663357734677  0.6820886731147766  0.18081893026828766  1.0000
  O   O3        1.0  0.2082477658987045  0.09658971428871155  0.008703779429197311  1.0000
  Ti  Ti2       1.0  0.20954884588718412  0.36532652378082275  0.5472692847251892  1.0000
  O   O4        1.0  0.20871919393539426  0.27358013391494745  0.3639081120491028  1.0000
  Ba  Ba3       1.0  0.7086997628211974  0.7729621529579161  0.3634029030799866  1.0000
  O   O5        1.0  0.7085214257240294  0.18236738443374634  0.18063654005527496  1.0000
  O   O6        1.0  0.7096866369247435  0.3640260696411133  0.5456827878952026  1.0000
  O   O7        1.0  0.20926778018474576  0.864505112171173  0.54625403881073  1.0000
